Circuit: * H:\MITCHELL STUFF 2\Work\Berkeley\Berkeley_AIAA\Code_F2017\Circuits\Simulation\MC34063_Test.asc

Direct Newton iteration failed to find .op point.  (Use ".option noopiter" to skip.)
Starting Gmin stepping
Gmin = 10
Gmin = 1.07374
Gmin = 0.115292
Gmin = 0.0123794
Gmin = 0.00132923
Gmin = 0.000142725
Gmin = 1.5325e-005
Gmin = 1.6455e-006
Gmin = 1.76685e-007
Gmin = 1.89714e-008
Gmin = 2.03704e-009
Gmin = 2.18725e-010
Gmin = 2.34854e-011
Gmin = 2.52173e-012
Gmin = 2.70769e-013
Gmin = 0
Gmin stepping succeeded in finding the operating point.

Heightened Def Con from 5.62427e-007 to 5.62427e-007
Heightened Def Con from 5.62427e-007 to 5.65427e-007

Date: Sun Oct 08 22:27:01 2017
Total elapsed time: 27.097 seconds.

tnom = 27
temp = 27
method = modified trap
totiter = 2522215
traniter = 2521131
tranpoints = 720121
accept = 557188
rejected = 162935
matrix size = 40
fillins = 25
solver = Normal
Matrix Compiler1: 2.56 KB object code size  1.5/0.9/[0.3]
Matrix Compiler2: off  [0.9]/1.2/1.4

