Circuit: * C:\Users\Laptop\Desktop\AIAA\F2017_Decal\Circuits\Simulation\MotorController.asc

WARNING: Less than two connections to node V_36V.  This node is used by V36V.
WARNING: Less than two connections to node V_1V.  This node is used by V1V.
Direct Newton iteration for .op point succeeded.
Ignoring empty pin current: Ix(u4:1:103)
Ignoring empty pin current: Ix(u4:2:103)
Ignoring empty pin current: Ix(u4:1:1:201)
Ignoring empty pin current: Ix(u4:1:2:603)
Ignoring empty pin current: Ix(u4:1:3:301)
Ignoring empty pin current: Ix(u4:2:1:201)
Ignoring empty pin current: Ix(u4:2:2:603)
Ignoring empty pin current: Ix(u4:2:3:301)
Ignoring empty pin current: Ix(u4:1:103)
Ignoring empty pin current: Ix(u4:2:103)
Ignoring empty pin current: Ix(u4:1:1:201)
Ignoring empty pin current: Ix(u4:1:2:603)
Ignoring empty pin current: Ix(u4:1:3:301)
Ignoring empty pin current: Ix(u4:2:1:201)
Ignoring empty pin current: Ix(u4:2:2:603)
Ignoring empty pin current: Ix(u4:2:3:301)

Date: Thu Sep 21 19:16:10 2017
Total elapsed time: 23.080 seconds.

tnom = 27
temp = 27
method = modified trap
totiter = 169141
traniter = 169102
tranpoints = 50926
accept = 38278
rejected = 12648
matrix size = 188
fillins = 107
solver = Normal
Thread vector: 58.0/20.4[7] 38.4/8.2[7] 40.1/9.4[7] 1.0/1.6[1]  2592/500
Matrix Compiler1: off  [6.1]/7.5/7.0
Matrix Compiler2: 16.65 KB object code size  9.2/11.7/[1.2]

