Circuit: * C:\Users\Laptop\Desktop\AIAA\F2017_Decal\Circuits\Simulation\MotorController.asc

WARNING: Specified period is not longer than the sum of Trise, Tfall, and Ton for vfpga_fspeed.  Increasing period to 0.001002
Per .tran options, skipping operating point for transient analysis.

Date: Wed Oct 04 23:05:01 2017
Total elapsed time: 1.745 seconds.

tnom = 27
temp = 27
method = modified trap
totiter = 64108
traniter = 64108
tranpoints = 27186
accept = 21108
rejected = 6078
matrix size = 131
fillins = 44
solver = Normal
Thread vector: 13.9/9.3[2] 5.4/4.1[2] 1.9/1.9[1] 0.7/1.4[1]  2592/500
Matrix Compiler1: 10.16 KB object code size  4.5/1.8/[0.9]
Matrix Compiler2: 11.58 KB object code size  1.4/2.2/[0.7]

