Circuit: * C:\Users\Laptop\Desktop\AIAA\F2017_Decal\Circuits\Simulation\MotorController.asc

.OP point found by inspection.

Date: Tue Sep 26 12:06:28 2017
Total elapsed time: 10.599 seconds.

tnom = 27
temp = 27
method = modified trap
totiter = 479536
traniter = 479536
tranpoints = 169942
accept = 129339
rejected = 40603
matrix size = 118
fillins = 50
solver = Normal
Thread vector: 10.1/7.5[2] 4.2/3.3[2] 1.1/1.1[1] 0.5/1.2[1]  2592/500
Matrix Compiler1: 9.61 KB object code size  2.8/1.3/[0.8]
Matrix Compiler2: 10.75 KB object code size  1.0/1.4/[0.6]

