Circuit: * H:\MITCHELL STUFF 2\Work\Berkeley\Berkeley_AIAA\Code_F2017\Circuits\Simulation\MotorController.asc

.OP point found by inspection.
Heightened Def Con from 0.504001 to 0.504001
Heightened Def Con from 0.665001 to 0.665001
Heightened Def Con from 0.665001 to 0.665001
Heightened Def Con from 0.687001 to 0.687001
Heightened Def Con from 0.687001 to 0.687001
Heightened Def Con from 0.687001 to 0.687001
Heightened Def Con from 0.687001 to 0.687001
Heightened Def Con from 0.699001 to 0.699001
Heightened Def Con from 0.702001 to 0.702001
Heightened Def Con from 0.710001 to 0.710001
Heightened Def Con from 0.712001 to 0.712001
Heightened Def Con from 0.712001 to 0.712001
Heightened Def Con from 0.712001 to 0.712001
Heightened Def Con from 0.712001 to 0.712001
Heightened Def Con from 0.712001 to 0.712001
Heightened Def Con from 0.712001 to 0.712001
Heightened Def Con from 0.712001 to 0.712001
Heightened Def Con from 0.723501 to 0.723501
Heightened Def Con from 0.723501 to 0.723501
Heightened Def Con from 0.725501 to 0.725501
Heightened Def Con from 0.725501 to 0.725501
Heightened Def Con from 0.725501 to 0.725501
Heightened Def Con from 0.725501 to 0.725501
Heightened Def Con from 0.733501 to 0.733501
Heightened Def Con from 0.733501 to 0.733501
Heightened Def Con from 0.734501 to 0.734501
Heightened Def Con from 0.734501 to 0.734501
Heightened Def Con from 0.734501 to 0.734501
Heightened Def Con from 0.734501 to 0.734501
Heightened Def Con from 0.734501 to 0.734501
Heightened Def Con from 0.734501 to 0.734501
Heightened Def Con from 0.734501 to 0.734501
Heightened Def Con from 0.734501 to 0.734501
Heightened Def Con from 0.734501 to 0.734501
Heightened Def Con from 0.735501 to 0.735501
Heightened Def Con from 0.735501 to 0.735501
Heightened Def Con from 0.735501 to 0.735501
Heightened Def Con from 0.735501 to 0.735501
Heightened Def Con from 0.735501 to 0.735501
Heightened Def Con from 0.735501 to 0.735501
Heightened Def Con from 0.735501 to 0.735501
Heightened Def Con from 0.735501 to 0.735501
Heightened Def Con from 0.735501 to 0.735501
Heightened Def Con from 0.735501 to 0.735501
Heightened Def Con from 0.735501 to 0.735501
Heightened Def Con from 0.735501 to 0.735501
Heightened Def Con from 0.738001 to 0.738001
Heightened Def Con from 0.738001 to 0.738001
Heightened Def Con from 0.738001 to 0.738001
Heightened Def Con from 0.738001 to 0.738001
Heightened Def Con from 0.738001 to 0.738001
Heightened Def Con from 0.738001 to 0.738001
Heightened Def Con from 0.746501 to 0.746501
Heightened Def Con from 0.746501 to 0.746501
Heightened Def Con from 0.746501 to 0.746501
Heightened Def Con from 0.746501 to 0.746501
Heightened Def Con from 0.746501 to 0.746501
Heightened Def Con from 0.746501 to 0.746501
Heightened Def Con from 0.746501 to 0.746501
Heightened Def Con from 0.746501 to 0.746501
Heightened Def Con from 0.746501 to 0.746501
Heightened Def Con from 0.746501 to 0.746501
Heightened Def Con from 0.746501 to 0.746501
Heightened Def Con from 0.746501 to 0.746501
Heightened Def Con from 0.746501 to 0.746501
Heightened Def Con from 0.746501 to 0.746501
Heightened Def Con from 0.751001 to 0.751001
Heightened Def Con from 0.751501 to 0.751501
Heightened Def Con from 0.751501 to 0.751501
Heightened Def Con from 0.751501 to 0.751501
Heightened Def Con from 0.751501 to 0.751501
Heightened Def Con from 0.751501 to 0.751501
Heightened Def Con from 0.751501 +to 0.751501
Heightened Def Con from 0.751501 to 0.751501
Heightened Def Con from 0.751501 to 0.751501
Heightened Def Con from 0.751501 to 0.751501
Heightened Def Con from 0.751501 to 0.751501
Heightened Def Con from 0.751501 to 0.751501
Heightened Def Con from 0.756001 to 0.756001
Heightened Def Con from 0.758501 to 0.758501
Heightened Def Con from 0.760001 to 0.760001
Heightened Def Con from 0.760001 to 0.760001
Heightened Def Con from 0.760001 to 0.760001
Heightened Def Con from 0.760001 to 0.760001
Heightened Def Con from 0.763501 to 0.763501
Heightened Def Con from 0.763501 to 0.763501
Heightened Def Con from 0.763501 to 0.763501
Heightened Def Con from 0.763501 to 0.763501
Heightened Def Con from 0.763501 to 0.763501
Heightened Def Con from 0.763501 to 0.763501
Heightened Def Con from 0.763501 to 0.763501
Heightened Def Con from 0.763501 to 0.763501
Heightened Def Con from 0.763501 to 0.763501
Heightened Def Con from 0.763501 to 0.763501
Heightened Def Con from 0.763501 to 0.763501
Heightened Def Con from 0.763501 to 0.763501
Heightened Def Con from 0.763501 to 0.763501
Heightened Def Con from 0.763501 to 0.763501
Heightened Def Con from 0.763501 to 0.763501
Heightened Def Con from 0.763501 to 0.763501
Heightened Def Con from 0.763501 to 0.763501
Heightened Def Con from 0.763501 to 0.763501
Heightened Def Con from 0.763501 to 0.763501
Heightened Def Con from 0.763501 to 0.763501
Heightened Def Con from 0.763501 to 0.763501
Heightened Def Con from 0.763501 to 0.763501
Heightened Def Con from 0.763501 to 0.763501
Heightened Def Con from 0.763501 to 0.763501
Heightened Def Con from 0.763501 to 0.763501
Heightened Def Con from 0.771001 to 0.771001
Heightened Def Con from 0.771001 to 0.771001
Heightened Def Con from 0.771001 to 0.771001
Heightened Def Con from 0.771001 to 0.771001
Heightened Def Con from 0.771001 to 0.771001
Heightened Def Con from 0.771001 to 0.771001
Heightened Def Con from 0.771001 to 0.771001
Heightened Def Con from 0.771001 +to 0.771001
Heightened Def Con from 0.771001 to 0.771001
Heightened Def Con from 0.771001 to 0.771001
Heightened Def Con from 0.771001 to 0.771001
Heightened Def Con from 0.771001 to 0.771001
Heightened Def Con from 0.771501 to 0.771501
Heightened Def Con from 0.771501 to 0.771501
Heightened Def Con from 0.771501 to 0.771501
Heightened Def Con from 0.771501 to 0.771501
Heightened Def Con from 0.771501 to 0.771501
Heightened Def Con from 0.771501 to 0.771501
Heightened Def Con from 0.771501 to 0.771501
Heightened Def Con from 0.771501 to 0.771501
Heightened Def Con from 0.771501 to 0.771501
Heightened Def Con from 0.771501 to 0.771501
Heightened Def Con from 0.774001 to 0.774001
Heightened Def Con from 0.774001 to 0.774001
Heightened Def Con from 0.774001 to 0.774001
Heightened Def Con from 0.777501 to 0.777501
Heightened Def Con from 0.777501 to 0.777501
Heightened Def Con from 0.777501 to 0.777501
Heightened Def Con from 0.777501 to 0.777501
Heightened Def Con from 0.777501 to 0.777501
Heightened Def Con from 0.777501 to 0.777501
Heightened Def Con from 0.777501 to 0.777501
Heightened Def Con from 0.777501 to 0.777501
Heightened Def Con from 0.777501 to 0.777501
Heightened Def Con from 0.777501 to 0.777501
Heightened Def Con from 0.777501 to 0.777501
Heightened Def Con from 0.777501 to 0.777501
Heightened Def Con from 0.777501 to 0.777501
Heightened Def Con from 0.777501 to 0.777501
Heightened Def Con from 0.777501 to 0.777501
Heightened Def Con from 0.777501 to 0.777501
Heightened Def Con from 0.777501 to 0.777501
Heightened Def Con from 0.780501 to 0.780501
Heightened Def Con from 0.780501 to 0.780501
Heightened Def Con from 0.780501 to 0.780501
Heightened Def Con from 0.780501 to 0.780501
Heightened Def Con from 0.780501 to 0.780501
Heightened Def Con from 0.780501 to 0.780501
Heightened Def Con from 0.780501 to 0.780501
Heightened Def Con from 0.780501 to 0.780501
Heightened Def Con from 0.780501 to 0.780501
Heightened Def Con from 0.781501 to 0.781501
Heightened Def Con from 0.781501 to 0.781501
Heightened Def Con from 0.781501 to 0.781501
Heightened Def Con from 0.781501 to 0.781501
Heightened Def Con from 0.781501 to 0.781501
Heightened Def Con from 0.781501 to 0.781501
Heightened Def Con from 0.784001 to 0.784001
Heightened Def Con from 0.784001 to 0.784001
Heightened Def Con from 0.784001 to 0.784001
Heightened Def Con from 0.786501 to 0.786501
Heightened Def Con from 0.786501 to 0.786501
Heightened Def Con from 0.787001 to 0.787001
Heightened Def Con from 0.787001 to 0.787001
Heightened Def Con from 0.787001 to 0.787001
Heightened Def Con from 0.787001 to 0.787001
Heightened Def Con from 0.787001 to 0.787001
Heightened Def Con from 0.789001 to 0.789001
Heightened Def Con from 0.789001 to 0.789001
Heightened Def Con from 0.789001 to 0.789001
Heightened Def Con from 0.789001 to 0.789001
Heightened Def Con from 0.789001 to 0.789001
Heightened Def Con from 0.789001 to 0.789001
Heightened Def Con from 0.789001 to 0.789001
Heightened Def Con from 0.789001 to 0.789001
Heightened Def Con from 0.789501 to 0.789501
Heightened Def Con from 0.789501 to 0.789501
Heightened Def Con from 0.789501 to 0.789501
Heightened Def Con from 0.789501 to 0.789501
Heightened Def Con from 0.789501 to 0.789501
Heightened Def Con from 0.789501 to 0.789501
Heightened Def Con from 0.790501 to 0.790501
Heightened Def Con from 0.790501 to 0.790501
Heightened Def Con from 0.790501 to 0.790501
Heightened Def Con from 0.790501 +to 0.790501
Heightened Def Con from 0.790501 to 0.790501
Heightened Def Con from 0.790501 to 0.790501
Heightened Def Con from 0.790501 to 0.790501
Heightened Def Con from 0.790501 to 0.790501
Heightened Def Con from 0.790501 to 0.790501
Heightened Def Con from 0.790501 to 0.790501
Heightened Def Con from 0.790501 to 0.790501
Heightened Def Con from 0.790501 to 0.790501
Heightened Def Con from 0.790501 to 0.790501
Heightened Def Con from 0.790501 to 0.790501
Heightened Def Con from 0.790501 to 0.790501
Heightened Def Con from 0.790501 to 0.790501
Heightened Def Con from 0.790501 to 0.790501
Heightened Def Con from 0.790501 to 0.790501
Heightened Def Con from 0.795501 to 0.795501
Heightened Def Con from 0.795501 to 0.795501
Heightened Def Con from 0.795501 to 0.795501
Heightened Def Con from 0.795501 to 0.795501
Heightened Def Con from 0.795501 to 0.795501
Heightened Def Con from 0.795501 to 0.795501
Heightened Def Con from 0.797001 to 0.797001
Heightened Def Con from 0.797001 to 0.797001
Heightened Def Con from 0.798001 to 0.798001
Heightened Def Con from 0.798001 to 0.798001
Heightened Def Con from 0.798001 to 0.798001
Heightened Def Con from 0.798001 to 0.798001
Heightened Def Con from 0.798001 to 0.798001
Heightened Def Con from 0.798001 to 0.798001
Heightened Def Con from 0.800501 to 0.800501
Heightened Def Con from 0.800501 to 0.800501
Heightened Def Con from 0.800501 to 0.800501
Heightened Def Con from 0.800501 to 0.800501
Heightened Def Con from 0.800501 to 0.800501
Heightened Def Con from 0.800501 to 0.800501
Heightened Def Con from 0.800501 to 0.800501
Heightened Def Con from 0.800501 to 0.800501
Heightened Def Con from 0.800501 to 0.800501
Heightened Def Con from 0.800501 to 0.800501
Heightened Def Con from 0.804001 to 0.804001
Heightened Def Con from 0.804001 to 0.804001
Heightened Def Con from 0.804001 to 0.804001
Heightened Def Con from 0.804001 to 0.804001
Heightened Def Con from 0.804001 to 0.804001
Heightened Def Con from 0.804001 to 0.804001
Heightened Def Con from 0.805001 to 0.805001
Heightened Def Con from 0.805001 to 0.805001
Heightened Def Con from 0.809001 to 0.809001
Heightened Def Con from 0.809501 to 0.809501
Heightened Def Con from 0.809501 to 0.809501
Heightened Def Con from 0.809501 to 0.809501
Heightened Def Con from 0.809501 to 0.809501
Heightened Def Con from 0.809501 to 0.809501
Heightened Def Con from 0.809501 to 0.809501
Heightened Def Con from 0.809501 to 0.809501
Heightened Def Con from 0.809501 to 0.809501
Heightened Def Con from 0.809501 to 0.809501
Heightened Def Con from 0.809501 to 0.809501
Heightened Def Con from 0.809501 to 0.809501
Heightened Def Con from 0.812001 to 0.812001
Heightened Def Con from 0.812001 to 0.812001
Heightened Def Con from 0.812001 to 0.812001
Heightened Def Con from 0.812001 to 0.812001
Heightened Def Con from 0.812001 to 0.812001
Heightened Def Con from 0.812001 to 0.812001
Heightened Def Con from 0.812001 to 0.812001
Heightened Def Con from 0.812001 to 0.812001
Heightened Def Con from 0.812001 to 0.812001
Heightened Def Con from 0.812001 to 0.812001
Heightened Def Con from 0.812001 to 0.812001
Heightened Def Con from 0.812001 to 0.812001
Heightened Def Con from 0.812001 to 0.812001
Heightened Def Con from 0.812001 to 0.812001
Heightened Def Con from 0.812001 to 0.812001
Heightened Def Con from 0.812001 to 0.812001
Heightened Def Con from 0.812001 to 0.812001
Heightened Def Con from 0.812001 to 0.812001
Heightened Def Con from 0.812001 to 0.812001
Heightened Def Con from 0.812001 to 0.812001
Heightened Def Con from 0.814001 to 0.814001
Heightened Def Con from 0.814001 to 0.814001
Heightened Def Con from 0.835001 to 0.835001
Heightened Def Con from 0.835001 to 0.835001
Heightened Def Con from 0.915 to 0.915
Heightened Def Con from 0.938501 to 0.938501
Heightened Def Con from 0.938501 to 0.938501
Heightened Def Con from 0.938501 to 0.938501
Heightened Def Con from 0.938501 to 0.938501
Heightened Def Con from 0.956501 +to 0.956501
Heightened Def Con from 0.956501 to 0.956501
Heightened Def Con from 0.956501 to 0.956501
Heightened Def Con from 0.956501 to 0.956501
Heightened Def Con from 0.956501 to 0.956501
Heightened Def Con from 0.956501 to 0.956501
Heightened Def Con from 0.956501 to 0.956501
Heightened Def Con from 0.956501 to 0.956501
Heightened Def Con from 0.956501 to 0.956501
Heightened Def Con from 0.956501 to 0.956501
Heightened Def Con from 0.956501 to 0.956501
Heightened Def Con from 0.956501 to 0.956501
Heightened Def Con from 0.956501 to 0.956501
Heightened Def Con from 0.956501 to 0.956501
Heightened Def Con from 0.956501 to 0.956501
Heightened Def Con from 0.956501 to 0.956501
Heightened Def Con from 0.956501 to 0.956501
Heightened Def Con from 0.956501 to 0.956501
Heightened Def Con from 0.963001 to 0.963001
Heightened Def Con from 0.963001 to 0.963001

Date: Mon Sep 25 23:48:01 2017
Total elapsed time: 71.452 seconds.

tnom = 27
temp = 27
method = modified trap
totiter = 3052392
traniter = 3052392
tranpoints = 1030234
accept = 770801
rejected = 259738
matrix size = 118
fillins = 50
solver = Normal
Thread vector: 14.3/12.3[2] 6.7/6.0[2] 2.3/2.7[1] 1.3/3.1[1]  2592/500
Matrix Compiler1: 9.61 KB object code size  5.2/3.8/[1.4]
Matrix Compiler2: 10.75 KB object code size  2.6/3.4/[1.4]

