Circuit: * H:\MITCHELL STUFF 2\Work\Berkeley\Berkeley_AIAA\Code_F2017\Circuits\Simulation\MotorController.asc

Per .tran options, skipping operating point for transient analysis.
.step tp=0.0001
Heightened Def Con from 0.0099687 to 0.00996871
Heightened Def Con from 0.0243868 to 0.0243868
Heightened Def Con from 0.0335974 to 0.0335974
Heightened Def Con from 0.0757018 to 0.0757018
Heightened Def Con from 0.0881016 to 0.0881016
Heightened Def Con from 0.105259 to 0.105259
Heightened Def Con from 0.107103 to 0.107103
Heightened Def Con from 0.183597 to 0.183597
.step tp=0.0002
.step tp=0.0003
.step tp=0.0004
.step tp=0.0005

Date: Thu Sep 28 11:28:42 2017
Total elapsed time: 981.803 seconds.

tnom = 27
temp = 27
method = modified trap
totiter = 5386319
traniter = 5386319
tranpoints = 1721552
accept = 1293186
rejected = 428532
matrix size = 158
fillins = 108
solver = Normal
Thread vector: 16.4/12.0[3] 8.2/5.5[3] 3.8/3.0[3] 1.5/2.3[1]  2592/500
Matrix Compiler1: 15.77 KB object code size  7.0/5.2/[1.6]
Matrix Compiler2: 14.87 KB object code size  3.1/4.6/[1.2]

