Circuit: * H:\MITCHELL STUFF 2\Work\Berkeley\Berkeley_AIAA\Code_F2017\Circuits\Simulation\MotorController.asc

WARNING: Specified period is not longer than the sum of Trise, Tfall, and Ton for vfpga_fspeed.  Increasing period to 0.001002
Per .tran options, skipping operating point for transient analysis.

Date: Fri Oct 06 22:02:49 2017
Total elapsed time: 1.772 seconds.

tnom = 27
temp = 27
method = modified trap
totiter = 55389
traniter = 55389
tranpoints = 24036
accept = 19074
rejected = 4962
matrix size = 131
fillins = 44
solver = Normal
Matrix Compiler1: 10.16 KB object code size  4.7/3.6/[1.2]
Matrix Compiler2: 11.58 KB object code size  2.6/3.2/[1.0]

