Circuit: * H:\MITCHELL STUFF 2\Work\Berkeley\Berkeley_AIAA\Code_F2017\Circuits\Simulation\MotorController.asc

WARNING: Specified period is not longer than the sum of Trise, Tfall, and Ton for vfpga_fspeed.  Increasing period to 0.001002
WARNING: Less than two connections to node V_GAIN1.  This node is used by VG.
Per .tran options, skipping operating point for transient analysis.
Changing Tseed to 1e-008
Changing Tseed to 1e-010
Heightened Def Con from 0.0105345 to 0.0105345
Heightened Def Con from 0.0188209 to 0.0188209
Heightened Def Con from 0.0190791 to 0.0190791
Heightened Def Con from 0.0195696 to 0.0195696
Heightened Def Con from 0.0232352 to 0.0232352
Heightened Def Con from 0.0251714 to 0.0251714
Heightened Def Con from 0.0251972 to 0.0251972
Heightened Def Con from 0.0254037 to 0.0254037
Heightened Def Con from 0.0262557 to 0.0262557
Heightened Def Con from 0.026643 to 0.026643
Heightened Def Con from 0.026772 to 0.026772
Heightened Def Con from 0.0301283 to 0.0301283
Heightened Def Con from 0.0301799 to 0.0301799
Heightened Def Con from 0.0305155 to 0.0305155
Heightened Def Con from 0.0316514 to 0.0316514
Heightened Def Con from 0.0326325 to 0.0326325
Heightened Def Con from 0.0340009 to 0.0340009
Heightened Def Con from 0.0340267 to 0.0340267
Heightened Def Con from 0.0349819 to 0.0349819
Heightened Def Con from 0.0364277 to 0.0364277
Heightened Def Con from 0.0365309 to 0.0365309
Heightened Def Con from 0.0366858 to 0.0366858
Heightened Def Con from 0.0371505 to 0.0371505
Heightened Def Con from 0.0371764 to 0.0371764
Heightened Def Con from 0.0385705 to 0.0385705
Heightened Def Con from 0.0393193 to 0.0393193
Heightened Def Con from 0.0423919 to 0.0423919
Heightened Def Con from 0.0442245 to 0.0442245
Heightened Def Con from 0.0442762 to 0.0442762
Heightened Def Con from 0.0448701 to 0.0448701
Heightened Def Con from 0.0468067 to 0.0468067
Heightened Def Con from 0.0468842 to 0.0468842
Heightened Def Con from 0.0469875 to 0.0469875
Heightened Def Con from 0.048072 to 0.048072
Heightened Def Con from 0.049802 to 0.049802
Heightened Def Con from 0.0502409 to 0.0502409
Heightened Def Con from 0.050964 to 0.050964
Heightened Def Con from 0.0511964 to 0.0511964
Heightened Def Con from 0.0514805 to 0.0514805
Heightened Def Con from 0.0525392 to 0.0525392
Heightened Def Con from 0.0548856 to 0.0548856
Heightened Def Con from 0.0557411 to 0.0557411
Heightened Def Con from 0.0561544 to 0.0561544
Heightened Def Con from 0.0600275 to 0.0600275
Heightened Def Con from 0.060105 to 0.060105
Heightened Def Con from 0.0618352 to 0.0618352
Heightened Def Con from 0.0633588 to 0.0633588
Heightened Def Con from 0.0636687 to 0.0636687
Heightened Def Con from 0.0644177 to 0.0644177
Heightened Def Con from 0.0653733 to 0.0653733
Heightened Def Con from 0.0654765 to 0.0654765
Heightened Def Con from 0.0669743 to 0.0669743
Heightened Def Con from 0.0670002 to 0.0670002
Heightened Def Con from 0.067181 to 0.067181
Heightened Def Con from 0.0698665 to 0.0698665
Heightened Def Con from 0.0705121 to 0.0705121
Heightened Def Con from 0.0705896 to 0.0705896
Heightened Def Con from 0.0725006 to 0.0725006
Heightened Def Con from 0.072888 to 0.072888
Heightened Def Con from 0.0733012 to 0.0733012
Heightened Def Con from 0.0747216 to 0.0747216
Heightened Def Con from 0.0749541 to 0.0749541
Heightened Def Con from 0.0750316 to 0.0750316
Heightened Def Con from 0.0755223 to 0.0755223
Heightened Def Con from 0.075574 to 0.075574
Heightened Def Con from 0.0757805 to 0.0757805
Heightened Def Con from 0.0758322 to 0.0758322
Heightened Def Con from 0.0762454 to 0.0762455
Heightened Def Con from 0.0765554 to 0.0765554
Heightened Def Con from 0.0768653 to 0.0768653
Heightened Def Con from 0.0773819 to 0.0773819
Heightened Def Con from 0.077976 to 0.077976
Heightened Def Con from 0.0783117 to 0.0783117
Heightened Def Con from 0.0791123 to 0.0791123
Heightened Def Con from 0.0794481 to 0.0794481
Heightened Def Con from 0.0799645 to 0.0799645
Heightened Def Con from 0.0801418 to 0.0801418
Heightened Def Con from 0.0803261 to 0.0803261
Heightened Def Con from 0.080352 to 0.080352
Heightened Def Con from 0.0804811 to 0.0804811
Heightened Def Con from 0.0808427 to 0.0808427
Heightened Def Con from 0.0810234 to 0.0810234
Heightened Def Con from 0.0811268 to 0.0811268
Heightened Def Con from 0.0812301 to 0.0812301
Heightened Def Con from 0.0816175 to 0.0816175
Heightened Def Con from 0.0817208 to 0.0817208
Heightened Def Con from 0.0830895 to 0.0830895
Heightened Def Con from 0.0837093 to 0.0837093
Heightened Def Con from 0.0842001 to 0.0842001
Heightened Def Con from 0.0843034 to 0.0843034
Heightened Def Con from 0.0844842 to 0.0844842
Heightened Def Con from 0.0846907 to 0.0846907
Heightened Def Con from 0.0856204 to 0.0856204
Heightened Def Con from 0.0860596 to 0.0860596
Heightened Def Con from 0.0860854 to 0.0860854
Heightened Def Con from 0.0862662 to 0.0862662
Heightened Def Con from 0.0868602 to 0.0868602
Heightened Def Con from 0.0870927 to 0.0870927
Heightened Def Con from 0.0878675 to 0.0878676
Heightened Def Con from 0.0878934 to 0.0878934
Heightened Def Con from 0.0883324 to 0.0883324
Heightened Def Con from 0.0892881 to 0.0892881
Heightened Def Con from 0.0895722 to 0.0895722
Heightened Def Con from 0.0896239 to 0.0896239
Heightened Def Con from 0.0897753 to 0.0897753
Heightened Def Con from 0.090347 to 0.090347
Heightened Def Con from 0.0910185 to 0.0910185
Heightened Def Con from 0.0910702 to 0.0910702
Heightened Def Con from 0.0921291 to 0.0921291
Heightened Def Con from 0.0922582 to 0.0922582
Heightened Def Con from 0.0926715 to 0.0926715
Heightened Def Con from 0.0939112 to 0.0939112
Heightened Def Con from 0.0939371 to 0.0939371
Heightened Def Con from 0.0942729 to 0.0942729
Heightened Def Con from 0.0944278 to 0.0944278
Heightened Def Con from 0.0946087 to 0.0946087
Heightened Def Con from 0.0947378 to 0.0947378
Heightened Def Con from 0.0947895 to 0.0947895
Heightened Def Con from 0.0948153 to 0.0948153
Heightened Def Con from 0.095022 to 0.095022
Heightened Def Con from 0.0954353 to 0.0954353
Heightened Def Con from 0.095616 to 0.095616
Heightened Def Con from 0.0956935 to 0.0956935
Heightened Def Con from 0.0959776 to 0.0959776
Heightened Def Con from 0.0962359 to 0.0962359
Heightened Def Con from 0.0972432 to 0.0972432
Heightened Def Con from 0.0977081 to 0.0977081
Heightened Def Con from 0.0982505 to 0.0982505
Heightened Def Con from 0.0982764 to 0.0982764
Heightened Def Con from 0.0983022 to 0.0983022
Heightened Def Con from 0.0985863 to 0.0985863
Heightened Def Con from 0.0986121 to 0.0986122
Heightened Def Con from 0.099387 to 0.099387
Heightened Def Con from 0.0994129 to 0.0994129
Heightened Def Con from 0.0995678 to 0.0995678
Heightened Def Con from 0.0999552 to 0.0999552
Heightened Def Con from 0.100084 to 0.100084
Heightened Def Con from 0.100136 to 0.100136
Heightened Def Con from 0.100446 to 0.100446
Heightened Def Con from 0.101066 to 0.101066
Heightened Def Con from 0.101092 to 0.101092
Heightened Def Con from 0.10135 to 0.10135
Heightened Def Con from 0.101427 to 0.101427
Heightened Def Con from 0.101918 to 0.101918
Heightened Def Con from 0.101944 to 0.101944
Heightened Def Con from 0.102125 to 0.102125
Heightened Def Con from 0.102383 to 0.102383
Heightened Def Con from 0.102461 to 0.102461
Heightened Def Con from 0.102512 to 0.102512
Heightened Def Con from 0.102616 to 0.102616
Heightened Def Con from 0.102641 to 0.102641
Heightened Def Con from 0.102719 to 0.102719
Heightened Def Con from 0.102822 to 0.102822
Heightened Def Con from 0.102951 to 0.102951
Heightened Def Con from 0.103649 to 0.103649
Heightened Def Con from 0.103778 to 0.103778
Heightened Def Con from 0.103804 to 0.103804
Heightened Def Con from 0.104165 to 0.104165
Heightened Def Con from 0.104863 to 0.104863
Heightened Def Con from 0.105327 to 0.105327
Heightened Def Con from 0.105457 to 0.105457
Heightened Def Con from 0.105663 to 0.105663
Heightened Def Con from 0.105741 to 0.105741
Heightened Def Con from 0.105973 to 0.105973
Heightened Def Con from 0.106641 to 0.106641
Heightened Def Con from 0.106696 to 0.106696
Heightened Def Con from 0.107006 to 0.107006
Heightened Def Con from 0.10742 to 0.10742
Heightened Def Con from 0.107523 to 0.107523
Heightened Def Con from 0.107962 to 0.107962
Heightened Def Con from 0.108527 to 0.108527
Heightened Def Con from 0.10866 to 0.10866
Heightened Def Con from 0.108866 to 0.108866
Heightened Def Con from 0.108892 to 0.108892
Heightened Def Con from 0.109021 to 0.109021
Heightened Def Con from 0.109306 to 0.109306
Heightened Def Con from 0.109512 to 0.109512
Heightened Def Con from 0.110287 to 0.110287
Heightened Def Con from 0.110856 to 0.110856
Heightened Def Con from 0.110881 to 0.110881
Heightened Def Con from 0.111088 to 0.111088
Heightened Def Con from 0.111553 to 0.111553
Heightened Def Con from 0.111605 to 0.111605
Heightened Def Con from 0.111811 to 0.111811
Heightened Def Con from 0.11207 to 0.11207
Heightened Def Con from 0.112276 to 0.112276
Heightened Def Con from 0.112302 to 0.112302
Heightened Def Con from 0.112406 to 0.112406
Heightened Def Con from 0.112509 to 0.112509
Heightened Def Con from 0.112741 to 0.112741
Heightened Def Con from 0.112896 to 0.112896
Heightened Def Con from 0.112974 to 0.112974
Heightened Def Con from 0.113051 to 0.113051
Heightened Def Con from 0.113232 to 0.113232
Heightened Def Con from 0.113594 to 0.113594
Heightened Def Con from 0.113697 to 0.113697
Heightened Def Con from 0.114007 to 0.114007
Heightened Def Con from 0.114317 to 0.114317
Heightened Def Con from 0.114395 to 0.114395
Heightened Def Con from 0.114911 to 0.114911
Heightened Def Con from 0.115015 to 0.115015
Heightened Def Con from 0.11517 to 0.11517
Heightened Def Con from 0.115221 to 0.115222
Heightened Def Con from 0.115454 to 0.115454
Heightened Def Con from 0.115557 to 0.115557
Heightened Def Con from 0.115712 to 0.115712
Heightened Def Con from 0.115945 to 0.115945
Heightened Def Con from 0.116384 to 0.116384
Heightened Def Con from 0.116539 to 0.116539
Heightened Def Con from 0.116978 to 0.116978
Heightened Def Con from 0.117211 to 0.117211
Heightened Def Con from 0.117417 to 0.117417
Heightened Def Con from 0.117805 to 0.117805
Heightened Def Con from 0.117856 to 0.117856
Heightened Def Con from 0.117908 to 0.117908
Heightened Def Con from 0.118399 to 0.118399
Heightened Def Con from 0.118528 to 0.118528
Heightened Def Con from 0.118941 to 0.118941
Heightened Def Con from 0.119071 to 0.119071
Heightened Def Con from 0.119096 to 0.119096
Heightened Def Con from 0.119432 to 0.119432
Heightened Def Con from 0.119613 to 0.119613
Heightened Def Con from 0.119739 to 0.119739
Heightened Def Con from 0.119871 to 0.119871
Heightened Def Con from 0.120052 to 0.120052
Heightened Def Con from 0.120362 to 0.120362
Heightened Def Con from 0.120801 to 0.120801
Heightened Def Con from 0.121189 to 0.121189
Heightened Def Con from 0.121421 to 0.121421
Heightened Def Con from 0.121602 to 0.121602
Heightened Def Con from 0.121654 to 0.121654
Heightened Def Con from 0.12186 to 0.12186
Heightened Def Con from 0.122997 to 0.122997
Heightened Def Con from 0.123178 to 0.123178
Heightened Def Con from 0.123617 to 0.123617
Heightened Def Con from 0.123694 to 0.123694
Heightened Def Con from 0.123849 to 0.123849
Heightened Def Con from 0.124263 to 0.124263
Heightened Def Con from 0.124289 to 0.124289
Heightened Def Con from 0.124444 to 0.124444
Heightened Def Con from 0.124883 to 0.124883
Heightened Def Con from 0.125038 to 0.125038
Heightened Def Con from 0.125141 to 0.125141
Heightened Def Con from 0.125193 to 0.125193
Heightened Def Con from 0.12558 to 0.12558
Heightened Def Con from 0.125761 to 0.125761
Heightened Def Con from 0.125787 to 0.125787
Heightened Def Con from 0.1262 to 0.1262
Heightened Def Con from 0.127104 to 0.127104
Heightened Def Con from 0.127492 to 0.127492
Heightened Def Con from 0.127905 to 0.127905
Heightened Def Con from 0.127957 to 0.127957
Heightened Def Con from 0.128112 to 0.128112
Heightened Def Con from 0.128164 to 0.128164
Heightened Def Con from 0.128293 to 0.128293
Heightened Def Con from 0.128344 to 0.128344
Heightened Def Con from 0.128448 to 0.128448
Heightened Def Con from 0.128525 to 0.128525
Heightened Def Con from 0.128706 to 0.128706
Heightened Def Con from 0.128965 to 0.128965
Heightened Def Con from 0.129223 to 0.129223
Heightened Def Con from 0.129559 to 0.129559
Heightened Def Con from 0.129714 to 0.129714
Heightened Def Con from 0.130282 to 0.130282
Heightened Def Con from 0.130385 to 0.130385
Heightened Def Con from 0.130928 to 0.130928
Heightened Def Con from 0.130954 to 0.130954
Heightened Def Con from 0.13116 to 0.13116
Heightened Def Con from 0.131186 to 0.131186
Heightened Def Con from 0.131445 to 0.131445
Heightened Def Con from 0.131703 to 0.131703
Heightened Def Con from 0.132297 to 0.132297
Heightened Def Con from 0.132478 to 0.132478
Heightened Def Con from 0.13253 to 0.13253
Heightened Def Con from 0.13271 to 0.13271
Heightened Def Con from 0.132865 to 0.132865
Heightened Def Con from 0.133124 to 0.133124
Heightened Def Con from 0.133172 to 0.133172
Heightened Def Con from 0.133253 to 0.133253
Heightened Def Con from 0.133305 to 0.133305
Heightened Def Con from 0.13346 to 0.13346
Heightened Def Con from 0.133873 to 0.133873
Heightened Def Con from 0.134183 to 0.134183
Heightened Def Con from 0.134338 to 0.134338
Heightened Def Con from 0.134571 to 0.134571
Heightened Def Con from 0.134751 to 0.134751
Heightened Def Con from 0.134777 to 0.134777
Heightened Def Con from 0.134803 to 0.134803
Heightened Def Con from 0.134829 to 0.134829
Heightened Def Con from 0.134855 to 0.134855
Heightened Def Con from 0.134984 to 0.134984
Heightened Def Con from 0.13501 to 0.13501
Heightened Def Con from 0.135371 to 0.135371
Heightened Def Con from 0.135475 to 0.135475
Heightened Def Con from 0.135707 to 0.135707
Heightened Def Con from 0.135914 to 0.135914
Heightened Def Con from 0.136043 to 0.136043
Heightened Def Con from 0.136121 to 0.136121
Heightened Def Con from 0.136327 to 0.136327
Heightened Def Con from 0.137412 to 0.137412
Heightened Def Con from 0.13759 to 0.13759
Heightened Def Con from 0.137619 to 0.137619
Heightened Def Con from 0.137748 to 0.137748
Heightened Def Con from 0.137774 to 0.137774
Heightened Def Con from 0.1378 to 0.1378
Heightened Def Con from 0.138007 to 0.138007
Heightened Def Con from 0.138084 to 0.138084
Heightened Def Con from 0.138136 to 0.138136
Heightened Def Con from 0.138549 to 0.138549
Heightened Def Con from 0.138575 to 0.138575
Heightened Def Con from 0.138652 to 0.138652
Heightened Def Con from 0.138756 to 0.138756
Heightened Def Con from 0.139143 to 0.139143
Heightened Def Con from 0.13935 to 0.13935
Heightened Def Con from 0.139479 to 0.139479
Heightened Def Con from 0.139582 to 0.139582
Heightened Def Con from 0.139789 to 0.139789
Heightened Def Con from 0.139815 to 0.139815
Heightened Def Con from 0.139867 to 0.139867
Heightened Def Con from 0.140612 to 0.140612
Heightened Def Con from 0.1409 to 0.1409
Heightened Def Con from 0.140952 to 0.140952
Heightened Def Con from 0.141339 to 0.141339
Heightened Def Con from 0.141362 to 0.141362
Heightened Def Con from 0.141443 to 0.141443
Heightened Def Con from 0.141675 to 0.141675
Heightened Def Con from 0.141934 to 0.141934
Heightened Def Con from 0.142063 to 0.142063
Heightened Def Con from 0.142114 to 0.142114
Heightened Def Con from 0.142218 to 0.142218
Heightened Def Con from 0.142266 to 0.142266
Heightened Def Con from 0.142554 to 0.142554
Heightened Def Con from 0.143148 to 0.143148
Heightened Def Con from 0.143613 to 0.143613
Heightened Def Con from 0.143923 to 0.143923
Heightened Def Con from 0.144311 to 0.144311
Heightened Def Con from 0.14444 to 0.14444
Heightened Def Con from 0.144491 to 0.144491
Heightened Def Con from 0.144517 to 0.144517
Heightened Def Con from 0.144931 to 0.144931
Heightened Def Con from 0.145008 to 0.145008
Heightened Def Con from 0.145137 to 0.145137
Heightened Def Con from 0.145292 to 0.145292
Heightened Def Con from 0.145628 to 0.145628
Heightened Def Con from 0.146713 to 0.146713
Heightened Def Con from 0.146842 to 0.146842
Heightened Def Con from 0.146868 to 0.146868
Heightened Def Con from 0.146997 to 0.146997
Heightened Def Con from 0.147023 to 0.147023
Heightened Def Con from 0.147256 to 0.147256
Heightened Def Con from 0.148725 to 0.148725
Heightened Def Con from 0.148806 to 0.148806
Heightened Def Con from 0.148883 to 0.148883
Heightened Def Con from 0.148987 to 0.148987
Heightened Def Con from 0.149452 to 0.149452
Heightened Def Con from 0.149762 to 0.149762
Heightened Def Con from 0.150046 to 0.150046
Heightened Def Con from 0.150434 to 0.150434
Heightened Def Con from 0.150692 to 0.150692
Heightened Def Con from 0.150821 to 0.150821
Heightened Def Con from 0.151002 to 0.151002
Heightened Def Con from 0.151364 to 0.151364
Heightened Def Con from 0.151622 to 0.151622
Heightened Def Con from 0.151855 to 0.151855
Heightened Def Con from 0.151984 to 0.151984
Heightened Def Con from 0.152113 to 0.152113
Heightened Def Con from 0.152242 to 0.152242
Heightened Def Con from 0.152371 to 0.152371
Heightened Def Con from 0.152397 to 0.152397
Heightened Def Con from 0.152604 to 0.152604
Heightened Def Con from 0.15263 to 0.15263
Heightened Def Con from 0.152785 to 0.152785
Heightened Def Con from 0.152914 to 0.152914
Heightened Def Con from 0.153121 to 0.153121
Heightened Def Con from 0.153224 to 0.153224
Heightened Def Con from 0.153947 to 0.153947
Heightened Def Con from 0.153973 to 0.153973
Heightened Def Con from 0.153999 to 0.153999
Heightened Def Con from 0.154051 to 0.154051
Heightened Def Con from 0.154749 to 0.154749
Heightened Def Con from 0.154878 to 0.154878
Heightened Def Con from 0.154981 to 0.154981
Heightened Def Con from 0.155084 to 0.155084
Heightened Def Con from 0.155265 to 0.155265
Heightened Def Con from 0.15573 to 0.15573
Heightened Def Con from 0.155859 to 0.155859
Heightened Def Con from 0.156531 to 0.156531
Heightened Def Con from 0.156764 to 0.156764
Heightened Def Con from 0.156971 to 0.156971
Heightened Def Con from 0.157126 to 0.157126
Heightened Def Con from 0.157591 to 0.157591
Heightened Def Con from 0.157668 to 0.157668
Heightened Def Con from 0.157849 to 0.157849
Heightened Def Con from 0.157952 to 0.157952
Heightened Def Con from 0.158159 to 0.158159
Heightened Def Con from 0.158211 to 0.158211
Heightened Def Con from 0.158311 to 0.158311
Heightened Def Con from 0.158547 to 0.158547
Heightened Def Con from 0.158934 to 0.158934
Heightened Def Con from 0.159034 to 0.159034
Heightened Def Con from 0.159193 to 0.159193
Heightened Def Con from 0.159348 to 0.159348
Heightened Def Con from 0.159968 to 0.159968
Heightened Def Con from 0.160872 to 0.160872
Heightened Def Con from 0.161001 to 0.161001
Heightened Def Con from 0.161053 to 0.161053
Heightened Def Con from 0.161544 to 0.161544
Heightened Def Con from 0.161673 to 0.161673
Heightened Def Con from 0.162061 to 0.162061
Heightened Def Con from 0.16219 to 0.16219
Heightened Def Con from 0.162526 to 0.162526
Heightened Def Con from 0.16263 to 0.16263
Heightened Def Con from 0.16281 to 0.16281
Heightened Def Con from 0.16294 to 0.16294
Heightened Def Con from 0.163353 to 0.163353
Heightened Def Con from 0.164077 to 0.164077
Heightened Def Con from 0.164697 to 0.164697
Heightened Def Con from 0.164878 to 0.164878
Heightened Def Con from 0.165158 to 0.165158
Heightened Def Con from 0.165291 to 0.165291
Heightened Def Con from 0.165886 to 0.165886
Heightened Def Con from 0.166299 to 0.166299
Heightened Def Con from 0.166399 to 0.166399
Heightened Def Con from 0.166506 to 0.166506
Heightened Def Con from 0.166816 to 0.166816
Heightened Def Con from 0.166842 to 0.166842
Heightened Def Con from 0.166997 to 0.166997
Heightened Def Con from 0.167204 to 0.167204
Heightened Def Con from 0.167307 to 0.167307
Heightened Def Con from 0.168341 to 0.168341
Heightened Def Con from 0.168496 to 0.168496
Heightened Def Con from 0.168547 to 0.168547
Heightened Def Con from 0.168699 to 0.168699
Heightened Def Con from 0.168935 to 0.168935
Heightened Def Con from 0.168987 to 0.168987
Heightened Def Con from 0.169116 to 0.169116
Heightened Def Con from 0.169349 to 0.169349
Heightened Def Con from 0.169555 to 0.169555
Heightened Def Con from 0.170201 to 0.170201
Heightened Def Con from 0.17046 to 0.17046
Heightened Def Con from 0.170692 to 0.170692
Heightened Def Con from 0.171493 to 0.171493
Heightened Def Con from 0.171597 to 0.171597
Heightened Def Con from 0.171622 to 0.171622
Heightened Def Con from 0.171829 to 0.171829
Heightened Def Con from 0.171984 to 0.171984
Heightened Def Con from 0.172113 to 0.172113
Heightened Def Con from 0.17232 to 0.17232
Heightened Def Con from 0.172346 to 0.172346
Heightened Def Con from 0.172424 to 0.172424
Heightened Def Con from 0.172604 to 0.172604
Heightened Def Con from 0.173018 to 0.173018
Heightened Def Con from 0.173328 to 0.173328
Heightened Def Con from 0.173431 to 0.173431
Heightened Def Con from 0.17369 to 0.17369
Heightened Def Con from 0.174155 to 0.174155
Heightened Def Con from 0.174258 to 0.174258
Heightened Def Con from 0.174362 to 0.174362
Heightened Def Con from 0.174491 to 0.174491
Heightened Def Con from 0.174878 to 0.174878
Heightened Def Con from 0.175085 to 0.175085
Heightened Def Con from 0.17524 to 0.17524
Heightened Def Con from 0.175524 to 0.175524
Heightened Def Con from 0.176067 to 0.176067
Heightened Def Con from 0.176144 to 0.176144
Heightened Def Con from 0.176196 to 0.176196
Heightened Def Con from 0.176274 to 0.176274
Heightened Def Con from 0.177152 to 0.177152
Heightened Def Con from 0.177281 to 0.177281
Heightened Def Con from 0.17754 to 0.17754
Heightened Def Con from 0.177746 to 0.177746
Heightened Def Con from 0.177953 to 0.177953
Heightened Def Con from 0.178211 to 0.178211
Heightened Def Con from 0.178522 to 0.178522
Heightened Def Con from 0.17927 to 0.17927
Heightened Def Con from 0.17958 to 0.17958
Heightened Def Con from 0.179606 to 0.179606
Heightened Def Con from 0.179658 to 0.179658
Heightened Def Con from 0.179736 to 0.179736
Heightened Def Con from 0.179891 to 0.179891
Heightened Def Con from 0.179942 to 0.179942
Heightened Def Con from 0.180071 to 0.180071
Heightened Def Con from 0.180201 to 0.180201
Heightened Def Con from 0.180252 to 0.180252
Heightened Def Con from 0.180588 to 0.180588
Heightened Def Con from 0.18064 to 0.18064
Heightened Def Con from 0.180898 to 0.180898
Heightened Def Con from 0.18095 to 0.18095
Heightened Def Con from 0.181286 to 0.181286
Heightened Def Con from 0.181338 to 0.181338
Heightened Def Con from 0.181519 to 0.181519
Heightened Def Con from 0.181958 to 0.181958
Heightened Def Con from 0.182424 to 0.182424
Heightened Def Con from 0.182553 to 0.182553
Heightened Def Con from 0.182734 to 0.182734
Heightened Def Con from 0.183147 to 0.183147
Heightened Def Con from 0.183302 to 0.183302
Heightened Def Con from 0.183767 to 0.183767
Heightened Def Con from 0.185369 to 0.185369
Heightened Def Con from 0.185524 to 0.185524
Heightened Def Con from 0.185628 to 0.185628
Heightened Def Con from 0.185912 to 0.185912
Heightened Def Con from 0.185989 to 0.185989
Heightened Def Con from 0.186093 to 0.186093
Heightened Def Con from 0.186222 to 0.186222
Heightened Def Con from 0.186351 to 0.186351
Heightened Def Con from 0.186455 to 0.186455
Heightened Def Con from 0.186946 to 0.186946
Heightened Def Con from 0.186971 to 0.186971
Heightened Def Con from 0.187204 to 0.187204
Heightened Def Con from 0.187385 to 0.187385
Heightened Def Con from 0.187437 to 0.187437
Heightened Def Con from 0.187514 to 0.187514
Heightened Def Con from 0.188315 to 0.188315
Heightened Def Con from 0.189039 to 0.189039
Heightened Def Con from 0.190382 to 0.190382
Heightened Def Con from 0.19046 to 0.19046
Heightened Def Con from 0.191106 to 0.191106
Heightened Def Con from 0.191416 to 0.191416
Heightened Def Con from 0.191597 to 0.191597
Heightened Def Con from 0.192217 to 0.192217
Heightened Def Con from 0.192734 to 0.192734
Heightened Def Con from 0.192992 to 0.192992
Heightened Def Con from 0.193173 to 0.193173
Heightened Def Con from 0.193664 to 0.193664
Heightened Def Con from 0.193767 to 0.193767
Heightened Def Con from 0.193922 to 0.193922
Heightened Def Con from 0.194051 to 0.194051
Heightened Def Con from 0.194387 to 0.194387
Heightened Def Con from 0.194646 to 0.194646
Heightened Def Con from 0.194801 to 0.194801
Heightened Def Con from 0.194849 to 0.194849
Heightened Def Con from 0.194853 to 0.194853
Heightened Def Con from 0.194878 to 0.194878
Heightened Def Con from 0.195008 to 0.195008
Heightened Def Con from 0.195033 to 0.195033
Heightened Def Con from 0.195162 to 0.195162
Heightened Def Con from 0.195421 to 0.195421
Heightened Def Con from 0.19555 to 0.19555
Heightened Def Con from 0.195576 to 0.195576
Heightened Def Con from 0.195627 to 0.195627
Heightened Def Con from 0.195834 to 0.195834
Heightened Def Con from 0.196584 to 0.196584
Heightened Def Con from 0.197307 to 0.197307
Heightened Def Con from 0.197514 to 0.197514
Heightened Def Con from 0.197617 to 0.197617
Heightened Def Con from 0.19795 to 0.19795
Heightened Def Con from 0.198057 to 0.198057
Heightened Def Con from 0.198082 to 0.198082
Heightened Def Con from 0.198393 to 0.198393
Heightened Def Con from 0.198935 to 0.198935
Heightened Def Con from 0.199013 to 0.199013
Heightened Def Con from 0.199116 to 0.199116
Heightened Def Con from 0.1994 to 0.1994
Heightened Def Con from 0.199685 to 0.199685
Heightened Def Con from 0.199969 to 0.199969
Heightened Def Con from 0.20015 to 0.20015
Heightened Def Con from 0.200202 to 0.200202
Heightened Def Con from 0.200693 to 0.200693
Heightened Def Con from 0.200874 to 0.200874
Heightened Def Con from 0.201106 to 0.201106
Heightened Def Con from 0.201261 to 0.201261
Heightened Def Con from 0.201339 to 0.201339
Heightened Def Con from 0.201907 to 0.201907
Heightened Def Con from 0.202553 to 0.202553
Heightened Def Con from 0.203122 to 0.203122
Heightened Def Con from 0.203458 to 0.203458
Heightened Def Con from 0.203613 to 0.203613
Heightened Def Con from 0.203742 to 0.203742
Heightened Def Con from 0.203949 to 0.203949
Heightened Def Con from 0.204466 to 0.204466
Heightened Def Con from 0.204724 to 0.204724
Heightened Def Con from 0.204982 to 0.204982
Heightened Def Con from 0.205267 to 0.205267
Heightened Def Con from 0.20537 to 0.20537
Heightened Def Con from 0.205423 to 0.205423
Heightened Def Con from 0.205681 to 0.205681
Heightened Def Con from 0.205784 to 0.205784
Heightened Def Con from 0.206017 to 0.206017
Heightened Def Con from 0.206121 to 0.206121
Heightened Def Con from 0.20625 to 0.20625
Heightened Def Con from 0.206302 to 0.206302
Heightened Def Con from 0.207 to 0.207
Heightened Def Con from 0.207232 to 0.207232
Heightened Def Con from 0.20731 to 0.20731
Heightened Def Con from 0.207465 to 0.207465
Heightened Def Con from 0.207775 to 0.207775
Heightened Def Con from 0.207981 to 0.207981
Heightened Def Con from 0.20824 to 0.20824
Heightened Def Con from 0.208834 to 0.208834
Heightened Def Con from 0.209377 to 0.209377
Heightened Def Con from 0.20979 to 0.20979
Heightened Def Con from 0.209919 to 0.209919
Heightened Def Con from 0.210074 to 0.210074
Heightened Def Con from 0.210385 to 0.210385
Heightened Def Con from 0.21041 to 0.21041
Heightened Def Con from 0.210462 to 0.210462
Heightened Def Con from 0.210695 to 0.210695
Heightened Def Con from 0.211393 to 0.211393
Heightened Def Con from 0.211444 to 0.211444
Heightened Def Con from 0.211677 to 0.211677
Heightened Def Con from 0.211754 to 0.211754
Heightened Def Con from 0.211832 to 0.211832
Heightened Def Con from 0.212065 to 0.212065
Heightened Def Con from 0.212349 to 0.212349
Heightened Def Con from 0.212504 to 0.212504
Heightened Def Con from 0.212659 to 0.212659
Heightened Def Con from 0.212814 to 0.212814
Heightened Def Con from 0.21302 to 0.21302
Heightened Def Con from 0.213227 to 0.213227
Heightened Def Con from 0.21333 to 0.21333
Heightened Def Con from 0.213408 to 0.213408
Heightened Def Con from 0.213537 to 0.213537
Heightened Def Con from 0.213563 to 0.213563
Heightened Def Con from 0.213847 to 0.213847
Heightened Def Con from 0.213873 to 0.213873
Heightened Def Con from 0.21408 to 0.21408
Heightened Def Con from 0.214209 to 0.214209
Heightened Def Con from 0.214441 to 0.214441
Heightened Def Con from 0.21457 to 0.21457
Heightened Def Con from 0.214674 to 0.214674
Heightened Def Con from 0.214725 to 0.214725
Heightened Def Con from 0.214854 to 0.214854
Heightened Def Con from 0.214877 to 0.214877
Heightened Def Con from 0.214906 to 0.214906
Heightened Def Con from 0.215268 to 0.215268
Heightened Def Con from 0.215397 to 0.215397
Heightened Def Con from 0.215552 to 0.215552
Heightened Def Con from 0.215656 to 0.215656
Heightened Def Con from 0.216172 to 0.216173
Heightened Def Con from 0.216457 to 0.216457
Heightened Def Con from 0.216508 to 0.216508
Heightened Def Con from 0.216612 to 0.216612
Heightened Def Con from 0.216818 to 0.216819
Heightened Def Con from 0.21687 to 0.21687
Heightened Def Con from 0.216948 to 0.216948
Heightened Def Con from 0.217129 to 0.217129
Heightened Def Con from 0.217154 to 0.217154
Heightened Def Con from 0.217284 to 0.217284
Heightened Def Con from 0.217439 to 0.217439
Heightened Def Con from 0.21749 to 0.21749
Heightened Def Con from 0.217904 to 0.217904
Heightened Def Con from 0.218007 to 0.218007
Heightened Def Con from 0.218395 to 0.218395
Heightened Def Con from 0.21855 to 0.21855
Heightened Def Con from 0.218782 to 0.218782
Heightened Def Con from 0.219063 to 0.219063
Heightened Def Con from 0.219377 to 0.219377
Heightened Def Con from 0.219454 to 0.219454
Heightened Def Con from 0.219506 to 0.219506
Heightened Def Con from 0.21979 to 0.21979
Heightened Def Con from 0.219894 to 0.219894
Heightened Def Con from 0.219945 to 0.219945
Heightened Def Con from 0.220049 to 0.220049
Heightened Def Con from 0.220204 to 0.220204
Heightened Def Con from 0.220255 to 0.220255
Heightened Def Con from 0.220514 to 0.220514
Heightened Def Con from 0.220644 to 0.220644
Heightened Def Con from 0.22098 to 0.22098
Heightened Def Con from 0.22173 to 0.22173
Heightened Def Con from 0.221756 to 0.221756
Heightened Def Con from 0.221781 to 0.221781
Heightened Def Con from 0.222243 to 0.222243
Heightened Def Con from 0.222247 to 0.222247
Heightened Def Con from 0.22297 to 0.22297
Heightened Def Con from 0.223176 to 0.223176
Heightened Def Con from 0.223408 to 0.223408
Heightened Def Con from 0.223512 to 0.223512
Heightened Def Con from 0.223641 to 0.223641
Heightened Def Con from 0.223718 to 0.223718
Heightened Def Con from 0.223848 to 0.223848
Heightened Def Con from 0.225139 to 0.225139
Heightened Def Con from 0.225501 to 0.225501
Heightened Def Con from 0.225604 to 0.225604
Heightened Def Con from 0.225785 to 0.225785
Heightened Def Con from 0.225966 to 0.225966
Heightened Def Con from 0.225992 to 0.225992
Heightened Def Con from 0.226044 to 0.226044
Heightened Def Con from 0.226095 to 0.226095
Heightened Def Con from 0.226225 to 0.226225
Heightened Def Con from 0.226431 to 0.226431
Heightened Def Con from 0.226948 to 0.226948
Heightened Def Con from 0.227026 to 0.227026
Heightened Def Con from 0.227696 to 0.227696
Heightened Def Con from 0.227748 to 0.227748
Heightened Def Con from 0.228213 to 0.228213
Heightened Def Con from 0.228497 to 0.228497
Heightened Def Con from 0.228549 to 0.228549
Heightened Def Con from 0.229118 to 0.229118
Heightened Def Con from 0.229143 to 0.229143
Heightened Def Con from 0.229247 to 0.229247
Heightened Def Con from 0.229505 to 0.229505
Heightened Def Con from 0.229635 to 0.229635
Heightened Def Con from 0.22979 to 0.22979
Heightened Def Con from 0.229996 to 0.229996
Heightened Def Con from 0.230487 to 0.230487
Heightened Def Con from 0.230695 to 0.230695
Heightened Def Con from 0.23082 to 0.23082
Heightened Def Con from 0.230876 to 0.230876
Heightened Def Con from 0.231522 to 0.231522
Heightened Def Con from 0.231625 to 0.231625
Heightened Def Con from 0.231728 to 0.231728
Heightened Def Con from 0.231858 to 0.231858
Heightened Def Con from 0.232168 to 0.232168
Heightened Def Con from 0.232194 to 0.232194
Heightened Def Con from 0.232712 to 0.232712
Heightened Def Con from 0.232893 to 0.232893
Heightened Def Con from 0.233022 to 0.233022
Heightened Def Con from 0.23341 to 0.23341
Heightened Def Con from 0.233435 to 0.233435
Heightened Def Con from 0.233509 to 0.233509
Heightened Def Con from 0.233513 to 0.233513
Heightened Def Con from 0.233539 to 0.233539
Heightened Def Con from 0.233642 to 0.233642
Heightened Def Con from 0.233823 to 0.233823
Heightened Def Con from 0.233849 to 0.233849
Heightened Def Con from 0.233978 to 0.233978
Heightened Def Con from 0.234082 to 0.234082
Heightened Def Con from 0.234262 to 0.234262
Heightened Def Con from 0.2354 to 0.2354
Heightened Def Con from 0.235477 to 0.235477
Heightened Def Con from 0.236407 to 0.236407
Heightened Def Con from 0.236459 to 0.236459
Heightened Def Con from 0.236611 to 0.236611
Heightened Def Con from 0.236843 to 0.236843
Heightened Def Con from 0.237105 to 0.237105
Heightened Def Con from 0.237234 to 0.237234
Heightened Def Con from 0.237257 to 0.237257
Heightened Def Con from 0.23726 to 0.23726
Heightened Def Con from 0.237338 to 0.237338
Heightened Def Con from 0.237415 to 0.237415
Heightened Def Con from 0.237467 to 0.237467
Heightened Def Con from 0.237493 to 0.237493
Heightened Def Con from 0.237596 to 0.237596
Heightened Def Con from 0.237958 to 0.237958
Heightened Def Con from 0.238113 to 0.238113
Heightened Def Con from 0.238475 to 0.238475
Heightened Def Con from 0.238501 to 0.238501
Heightened Def Con from 0.23863 to 0.23863
Heightened Def Con from 0.239121 to 0.239121
Heightened Def Con from 0.239428 to 0.239428
Heightened Def Con from 0.239534 to 0.239534
Heightened Def Con from 0.239767 to 0.239767
Heightened Def Con from 0.239845 to 0.239845
Heightened Def Con from 0.239974 to 0.239974
Heightened Def Con from 0.240077 to 0.240077
Heightened Def Con from 0.240103 to 0.240103
Heightened Def Con from 0.240155 to 0.240155
Heightened Def Con from 0.24031 to 0.24031
Heightened Def Con from 0.240542 to 0.240542
Heightened Def Con from 0.240646 to 0.240646
Heightened Def Con from 0.241033 to 0.241033
Heightened Def Con from 0.241214 to 0.241214
Heightened Def Con from 0.241266 to 0.241266
Heightened Def Con from 0.241421 to 0.241421
Heightened Def Con from 0.241654 to 0.241654
Heightened Def Con from 0.242016 to 0.242016
Heightened Def Con from 0.242171 to 0.242171
Heightened Def Con from 0.242274 to 0.242274
Heightened Def Con from 0.2423 to 0.2423
Heightened Def Con from 0.242452 to 0.242452
Heightened Def Con from 0.242869 to 0.242869
Heightened Def Con from 0.242994 to 0.242994
Heightened Def Con from 0.24305 to 0.24305
Heightened Def Con from 0.243153 to 0.243153
Heightened Def Con from 0.243205 to 0.243205
Heightened Def Con from 0.243721 to 0.243721
Heightened Def Con from 0.243876 to 0.243876
Heightened Def Con from 0.244367 to 0.244367
Heightened Def Con from 0.244781 to 0.244781
Heightened Def Con from 0.244884 to 0.244884
Heightened Def Con from 0.245504 to 0.245504
Heightened Def Con from 0.245995 to 0.245995
Heightened Def Con from 0.246047 to 0.246047
Heightened Def Con from 0.24615 to 0.24615
Heightened Def Con from 0.246176 to 0.246176
Heightened Def Con from 0.246253 to 0.246253
Heightened Def Con from 0.246279 to 0.246279
Heightened Def Con from 0.246331 to 0.246331
Heightened Def Con from 0.246434 to 0.246434
Heightened Def Con from 0.246589 to 0.246589
Heightened Def Con from 0.246719 to 0.246719
Heightened Def Con from 0.246767 to 0.246767
Heightened Def Con from 0.246925 to 0.246925
Heightened Def Con from 0.246977 to 0.246977
Heightened Def Con from 0.247003 to 0.247003
Heightened Def Con from 0.247132 to 0.247132
Heightened Def Con from 0.24739 to 0.24739
Heightened Def Con from 0.247546 to 0.247546
Heightened Def Con from 0.247649 to 0.247649
Heightened Def Con from 0.247933 to 0.247933
Heightened Def Con from 0.248037 to 0.248037
Heightened Def Con from 0.248192 to 0.248192
Heightened Def Con from 0.24845 to 0.24845
Heightened Def Con from 0.248528 to 0.248528
Heightened Def Con from 0.248812 to 0.248812
Heightened Def Con from 0.249019 to 0.249019
Heightened Def Con from 0.249148 to 0.249148
Heightened Def Con from 0.249794 to 0.249794
Heightened Def Con from 0.24982 to 0.24982
Heightened Def Con from 0.250104 to 0.250104
Heightened Def Con from 0.250259 to 0.250259
Heightened Def Con from 0.250466 to 0.250466
Heightened Def Con from 0.250621 to 0.250621
Heightened Def Con from 0.250802 to 0.250802
Heightened Def Con from 0.25137 to 0.25137
Heightened Def Con from 0.251603 to 0.251603
Heightened Def Con from 0.251809 to 0.251809
Heightened Def Con from 0.252219 to 0.252219
Heightened Def Con from 0.252481 to 0.252481
Heightened Def Con from 0.252585 to 0.252585
Heightened Def Con from 0.252765 to 0.252765
Heightened Def Con from 0.252791 to 0.252791
Heightened Def Con from 0.25292 to 0.25292
Heightened Def Con from 0.253024 to 0.253024
Heightened Def Con from 0.253411 to 0.253411
Heightened Def Con from 0.253489 to 0.253489
Heightened Def Con from 0.253541 to 0.253541
Heightened Def Con from 0.253877 to 0.253877
Heightened Def Con from 0.253902 to 0.253902
Heightened Def Con from 0.254057 to 0.254057
Heightened Def Con from 0.254574 to 0.254574
Heightened Def Con from 0.255143 to 0.255143
Heightened Def Con from 0.255246 to 0.255246
Heightened Def Con from 0.255401 to 0.255401
Heightened Def Con from 0.255582 to 0.255582
Heightened Def Con from 0.25584 to 0.25584
Heightened Def Con from 0.255866 to 0.255866
Heightened Def Con from 0.256125 to 0.256125
Heightened Def Con from 0.256254 to 0.256254
Heightened Def Con from 0.25628 to 0.25628
Heightened Def Con from 0.256306 to 0.256306
Heightened Def Con from 0.256435 to 0.256435
Heightened Def Con from 0.256538 to 0.256538
Heightened Def Con from 0.256616 to 0.256616
Heightened Def Con from 0.256667 to 0.256667
Heightened Def Con from 0.256693 to 0.256693
Heightened Def Con from 0.256771 to 0.256771
Heightened Def Con from 0.256848 to 0.256848
Heightened Def Con from 0.257029 to 0.257029
Heightened Def Con from 0.257106 to 0.257106
Heightened Def Con from 0.257442 to 0.257442
Heightened Def Con from 0.257675 to 0.257675
Heightened Def Con from 0.258062 to 0.258062
Heightened Def Con from 0.258088 to 0.258088
Heightened Def Con from 0.25814 to 0.25814
Heightened Def Con from 0.258321 to 0.258321
Heightened Def Con from 0.25845 to 0.25845
Heightened Def Con from 0.258734 to 0.258734
Heightened Def Con from 0.259122 to 0.259122
Heightened Def Con from 0.259587 to 0.259587
Heightened Def Con from 0.26044 to 0.26044
Heightened Def Con from 0.260492 to 0.260492
Heightened Def Con from 0.260517 to 0.260517
Heightened Def Con from 0.261189 to 0.261189
Heightened Def Con from 0.261267 to 0.261267
Heightened Def Con from 0.261344 to 0.261344
Heightened Def Con from 0.261732 to 0.261732
Heightened Def Con from 0.262171 to 0.262171
Heightened Def Con from 0.262352 to 0.262352
Heightened Def Con from 0.262481 to 0.262481
Heightened Def Con from 0.262972 to 0.262972
Heightened Def Con from 0.263256 to 0.263256
Heightened Def Con from 0.263386 to 0.263386
Heightened Def Con from 0.263437 to 0.263437
Heightened Def Con from 0.263696 to 0.263696
Heightened Def Con from 0.264342 to 0.264342
Heightened Def Con from 0.264368 to 0.264368
Heightened Def Con from 0.264523 to 0.264523
Heightened Def Con from 0.264574 to 0.264574
Heightened Def Con from 0.264678 to 0.264678
Heightened Def Con from 0.264781 to 0.264781
Heightened Def Con from 0.26491 to 0.26491
Heightened Def Con from 0.264962 to 0.264962
Heightened Def Con from 0.265427 to 0.265427
Heightened Def Con from 0.265505 to 0.265505
Heightened Def Con from 0.265608 to 0.265608
Heightened Def Con from 0.26566 to 0.26566
Heightened Def Con from 0.266099 to 0.266099
Heightened Def Con from 0.266202 to 0.266202
Heightened Def Con from 0.266228 to 0.266228
Heightened Def Con from 0.266461 to 0.266461
Heightened Def Con from 0.267003 to 0.267003
Heightened Def Con from 0.267594 to 0.267594
Heightened Def Con from 0.267753 to 0.267753
Heightened Def Con from 0.267779 to 0.267779
Heightened Def Con from 0.267882 to 0.267882
Heightened Def Con from 0.267934 to 0.267934
Heightened Def Con from 0.268373 to 0.268373
Heightened Def Con from 0.268476 to 0.268476
Heightened Def Con from 0.268735 to 0.268735
Heightened Def Con from 0.268916 to 0.268916
Heightened Def Con from 0.268942 to 0.268942
Heightened Def Con from 0.269071 to 0.269071
Heightened Def Con from 0.2692 to 0.2692
Heightened Def Con from 0.269691 to 0.269691
Heightened Def Con from 0.269768 to 0.269768
Heightened Def Con from 0.270053 to 0.270053
Heightened Def Con from 0.270104 to 0.270104
Heightened Def Con from 0.270699 to 0.270699
Heightened Def Con from 0.270776 to 0.270776
Heightened Def Con from 0.270828 to 0.270828
Heightened Def Con from 0.270957 to 0.270957
Heightened Def Con from 0.271215 to 0.271215
Heightened Def Con from 0.271293 to 0.271293
Heightened Def Con from 0.271861 to 0.271861
Heightened Def Con from 0.271939 to 0.271939
Heightened Def Con from 0.272094 to 0.272094
Heightened Def Con from 0.272223 to 0.272223
Heightened Def Con from 0.272788 to 0.272788
Heightened Def Con from 0.273205 to 0.273205
Heightened Def Con from 0.273334 to 0.273334
Heightened Def Con from 0.273386 to 0.273386
Heightened Def Con from 0.273412 to 0.273412
Heightened Def Con from 0.273515 to 0.273515
Heightened Def Con from 0.273541 to 0.273541
Heightened Def Con from 0.273618 to 0.273618
Heightened Def Con from 0.273877 to 0.273877
Heightened Def Con from 0.273929 to 0.273929
Heightened Def Con from 0.274316 to 0.274316
Heightened Def Con from 0.274338 to 0.274338
Heightened Def Con from 0.274394 to 0.274394
Heightened Def Con from 0.274704 to 0.274704
Heightened Def Con from 0.275195 to 0.275195
Heightened Def Con from 0.275272 to 0.275272
Heightened Def Con from 0.27535 to 0.27535
Heightened Def Con from 0.275401 to 0.275401
Heightened Def Con from 0.275556 to 0.275556
Heightened Def Con from 0.275811 to 0.275811
Heightened Def Con from 0.275841 to 0.275841
Heightened Def Con from 0.276073 to 0.276073
Heightened Def Con from 0.276176 to 0.276176
Heightened Def Con from 0.276383 to 0.276383
Heightened Def Con from 0.276461 to 0.276461
Heightened Def Con from 0.276974 to 0.276974
Heightened Def Con from 0.277339 to 0.277339
Heightened Def Con from 0.277494 to 0.277494
Heightened Def Con from 0.277649 to 0.277649
Heightened Def Con from 0.277701 to 0.277701
Heightened Def Con from 0.277882 to 0.277882
Heightened Def Con from 0.278063 to 0.278063
Heightened Def Con from 0.278631 to 0.278631
Heightened Def Con from 0.278657 to 0.278657
Heightened Def Con from 0.278812 to 0.278812
Heightened Def Con from 0.278942 to 0.278942
Heightened Def Con from 0.279148 to 0.279148
Heightened Def Con from 0.279174 to 0.279174
Heightened Def Con from 0.279226 to 0.279226
Heightened Def Con from 0.279794 to 0.279794
Heightened Def Con from 0.279924 to 0.279924
Heightened Def Con from 0.280001 to 0.280001
Heightened Def Con from 0.28013 to 0.28013
Heightened Def Con from 0.280363 to 0.280363
Heightened Def Con from 0.280518 to 0.280518
Heightened Def Con from 0.280647 to 0.280647
Heightened Def Con from 0.281009 to 0.281009
Heightened Def Con from 0.281629 to 0.281629
Heightened Def Con from 0.281939 to 0.281939
Heightened Def Con from 0.282095 to 0.282095
Heightened Def Con from 0.283051 to 0.283051
Heightened Def Con from 0.283594 to 0.283594
Heightened Def Con from 0.283723 to 0.283723
Heightened Def Con from 0.2838 to 0.2838
Heightened Def Con from 0.283904 to 0.283904
Heightened Def Con from 0.283981 to 0.283981
Heightened Def Con from 0.284029 to 0.284029
Heightened Def Con from 0.28421 to 0.28421
Heightened Def Con from 0.284575 to 0.284575
Heightened Def Con from 0.284756 to 0.284756
Heightened Def Con from 0.285066 to 0.285066
Heightened Def Con from 0.285144 to 0.285144
Heightened Def Con from 0.28517 to 0.28517
Heightened Def Con from 0.285609 to 0.285609
Heightened Def Con from 0.285686 to 0.285686
Heightened Def Con from 0.285816 to 0.285816
Heightened Def Con from 0.286255 to 0.286255
Heightened Def Con from 0.286432 to 0.286432
Heightened Def Con from 0.286617 to 0.286617
Heightened Def Con from 0.286798 to 0.286798
Heightened Def Con from 0.287134 to 0.287134
Heightened Def Con from 0.28747 to 0.28747
Heightened Def Con from 0.287496 to 0.287496
Heightened Def Con from 0.287547 to 0.287547
Heightened Def Con from 0.287909 to 0.287909
Heightened Def Con from 0.288943 to 0.288943
Heightened Def Con from 0.28902 to 0.28902
Heightened Def Con from 0.289279 to 0.289279
Heightened Def Con from 0.289382 to 0.289382
Heightened Def Con from 0.289563 to 0.289563
Heightened Def Con from 0.289589 to 0.289589
Heightened Def Con from 0.289925 to 0.289925
Heightened Def Con from 0.29008 to 0.29008
Heightened Def Con from 0.290132 to 0.290132
Heightened Def Con from 0.290493 to 0.290493
Heightened Def Con from 0.290545 to 0.290545
Heightened Def Con from 0.290597 to 0.290597
Heightened Def Con from 0.291088 to 0.291088
Heightened Def Con from 0.291113 to 0.291113
Heightened Def Con from 0.291398 to 0.291398
Heightened Def Con from 0.291502 to 0.291502
Heightened Def Con from 0.291631 to 0.291631
Heightened Def Con from 0.291786 to 0.291786
Heightened Def Con from 0.291838 to 0.291838
Heightened Def Con from 0.292122 to 0.292122
Heightened Def Con from 0.292148 to 0.292148
Heightened Def Con from 0.292354 to 0.292354
Heightened Def Con from 0.292535 to 0.292535
Heightened Def Con from 0.292613 to 0.292613
Heightened Def Con from 0.292897 to 0.292897
Heightened Def Con from 0.292975 to 0.292975
Heightened Def Con from 0.293026 to 0.293026
Heightened Def Con from 0.293207 to 0.293207
Heightened Def Con from 0.293724 to 0.293724
Heightened Def Con from 0.293776 to 0.293776
Heightened Def Con from 0.293802 to 0.293802
Heightened Def Con from 0.294086 to 0.294086
Heightened Def Con from 0.294138 to 0.294138
Heightened Def Con from 0.294267 to 0.294267
Heightened Def Con from 0.294629 to 0.294629
Heightened Def Con from 0.294654 to 0.294654
Heightened Def Con from 0.295219 to 0.295219
Heightened Def Con from 0.295275 to 0.295275
Heightened Def Con from 0.29543 to 0.29543
Heightened Def Con from 0.295688 to 0.295688
Heightened Def Con from 0.295714 to 0.295714
Heightened Def Con from 0.295766 to 0.295766
Heightened Def Con from 0.296153 to 0.296153
Heightened Def Con from 0.296877 to 0.296877
Heightened Def Con from 0.297006 to 0.297006
Heightened Def Con from 0.297135 to 0.297135
Heightened Def Con from 0.297187 to 0.297187
Heightened Def Con from 0.297316 to 0.297316
Heightened Def Con from 0.297859 to 0.297859
Heightened Def Con from 0.297962 to 0.297962
Heightened Def Con from 0.298014 to 0.298014
Heightened Def Con from 0.298376 to 0.298376
Heightened Def Con from 0.298556 to 0.298556
Heightened Def Con from 0.298608 to 0.298608
Heightened Def Con from 0.298634 to 0.298634
Heightened Def Con from 0.29866 to 0.29866
Heightened Def Con from 0.298711 to 0.298711
Heightened Def Con from 0.298892 to 0.298892
Heightened Def Con from 0.299022 to 0.299022
Heightened Def Con from 0.299047 to 0.299047
Heightened Def Con from 0.299099 to 0.299099
Heightened Def Con from 0.29928 to 0.29928
Heightened Def Con from 0.299719 to 0.299719
Heightened Def Con from 0.299823 to 0.299823
Heightened Def Con from 0.299978 to 0.299978
Heightened Def Con from 0.30003 to 0.30003
Heightened Def Con from 0.300056 to 0.300056
Heightened Def Con from 0.300133 to 0.300133
Heightened Def Con from 0.300211 to 0.300211
Heightened Def Con from 0.300621 to 0.300621
Heightened Def Con from 0.300753 to 0.300753
Heightened Def Con from 0.300805 to 0.300805
Heightened Def Con from 0.300934 to 0.300934
Heightened Def Con from 0.301038 to 0.301038
Heightened Def Con from 0.301063 to 0.301063
Heightened Def Con from 0.301115 to 0.301115
Heightened Def Con from 0.301374 to 0.301374
Heightened Def Con from 0.301916 to 0.301916
Heightened Def Con from 0.301942 to 0.301942
Heightened Def Con from 0.30202 to 0.30202
Heightened Def Con from 0.302046 to 0.302046
Heightened Def Con from 0.302071 to 0.302071
Heightened Def Con from 0.302097 to 0.302097
Heightened Def Con from 0.302356 to 0.302356
Heightened Def Con from 0.30251 to 0.30251
Heightened Def Con from 0.302614 to 0.302614
Heightened Def Con from 0.302769 to 0.302769
Heightened Def Con from 0.302924 to 0.302924
Heightened Def Con from 0.303105 to 0.303105
Heightened Def Con from 0.303182 to 0.303182
Heightened Def Con from 0.303286 to 0.303286
Heightened Def Con from 0.304552 to 0.304552
Heightened Def Con from 0.304862 to 0.304862
Heightened Def Con from 0.30512 to 0.30512
Heightened Def Con from 0.305146 to 0.305146
Heightened Def Con from 0.305172 to 0.305172
Heightened Def Con from 0.305353 to 0.305353
Heightened Def Con from 0.305585 to 0.305585
Heightened Def Con from 0.305611 to 0.305611
Heightened Def Con from 0.305818 to 0.305818
Heightened Def Con from 0.305895 to 0.305895
Heightened Def Con from 0.306516 to 0.306516
Heightened Def Con from 0.30711 to 0.30711
Heightened Def Con from 0.307937 to 0.307937
Heightened Def Con from 0.308092 to 0.308092
Heightened Def Con from 0.308144 to 0.308144
Heightened Def Con from 0.308247 to 0.308247
Heightened Def Con from 0.308583 to 0.308583
Heightened Def Con from 0.309126 to 0.309126
Heightened Def Con from 0.309746 to 0.309746
Heightened Def Con from 0.310135 to 0.310135
Heightened Def Con from 0.310445 to 0.310445
Heightened Def Con from 0.310523 to 0.310523
Heightened Def Con from 0.310989 to 0.310989
Heightened Def Con from 0.311221 to 0.311221
Heightened Def Con from 0.311738 to 0.311738
Heightened Def Con from 0.311971 to 0.311971
Heightened Def Con from 0.312022 to 0.312022
Heightened Def Con from 0.3121 to 0.3121
Heightened Def Con from 0.312539 to 0.312539
Heightened Def Con from 0.312565 to 0.312565
Heightened Def Con from 0.312617 to 0.312617
Heightened Def Con from 0.312875 to 0.312875
Heightened Def Con from 0.313443 to 0.313443
Heightened Def Con from 0.31365 to 0.31365
Heightened Def Con from 0.314296 to 0.314296
Heightened Def Con from 0.314451 to 0.314451
Heightened Def Con from 0.314503 to 0.314503
Heightened Def Con from 0.314787 to 0.314787
Heightened Def Con from 0.314839 to 0.314839
Heightened Def Con from 0.315046 to 0.315046
Heightened Def Con from 0.315123 to 0.315123
Heightened Def Con from 0.315304 to 0.315304
Heightened Def Con from 0.315407 to 0.315407
Heightened Def Con from 0.315821 to 0.315821
Heightened Def Con from 0.315924 to 0.315924
Heightened Def Con from 0.316153 to 0.316153
Heightened Def Con from 0.316338 to 0.316338
Heightened Def Con from 0.316441 to 0.316441
Heightened Def Con from 0.316674 to 0.316674
Heightened Def Con from 0.316881 to 0.316881
Heightened Def Con from 0.31732 to 0.31732
Heightened Def Con from 0.317604 to 0.317604
Heightened Def Con from 0.317807 to 0.317807
Heightened Def Con from 0.318069 to 0.318069
Heightened Def Con from 0.31838 to 0.31838
Heightened Def Con from 0.318483 to 0.318483
Heightened Def Con from 0.319026 to 0.319026
Heightened Def Con from 0.319077 to 0.319077
Heightened Def Con from 0.31931 to 0.31931
Heightened Def Con from 0.319439 to 0.319439
Heightened Def Con from 0.320007 to 0.320007
Heightened Def Con from 0.320524 to 0.320524
Heightened Def Con from 0.320627 to 0.320627
Heightened Def Con from 0.320702 to 0.320702
Heightened Def Con from 0.320757 to 0.320757
Heightened Def Con from 0.320989 to 0.320989
Heightened Def Con from 0.321067 to 0.321067
Heightened Def Con from 0.321093 to 0.321093
Heightened Def Con from 0.321815 to 0.321815
Heightened Def Con from 0.321892 to 0.321892
Heightened Def Con from 0.322073 to 0.322073
Heightened Def Con from 0.322125 to 0.322125
Heightened Def Con from 0.322617 to 0.322617
Heightened Def Con from 0.322747 to 0.322747
Heightened Def Con from 0.322772 to 0.322772
Heightened Def Con from 0.323781 to 0.323781
Heightened Def Con from 0.323884 to 0.323884
Heightened Def Con from 0.324582 to 0.324582
Heightened Def Con from 0.324608 to 0.324608
Heightened Def Con from 0.324711 to 0.324711
Heightened Def Con from 0.32484 to 0.32484
Heightened Def Con from 0.325176 to 0.325176
Heightened Def Con from 0.32528 to 0.32528
Heightened Def Con from 0.325332 to 0.325332
Heightened Def Con from 0.325461 to 0.325461
Heightened Def Con from 0.326159 to 0.326159
Heightened Def Con from 0.326646 to 0.326646
Heightened Def Con from 0.326675 to 0.326675
Heightened Def Con from 0.326727 to 0.326727
Heightened Def Con from 0.32683 to 0.32683
Heightened Def Con from 0.326908 to 0.326908
Heightened Def Con from 0.327425 to 0.327425
Heightened Def Con from 0.327476 to 0.327476
Heightened Def Con from 0.328096 to 0.328096
Heightened Def Con from 0.328148 to 0.328148
Heightened Def Con from 0.328432 to 0.328432
Heightened Def Con from 0.328458 to 0.328458
Heightened Def Con from 0.328587 to 0.328587
Heightened Def Con from 0.328639 to 0.328639
Heightened Def Con from 0.328665 to 0.328665
Heightened Def Con from 0.328742 to 0.328742
Heightened Def Con from 0.328768 to 0.328768
Heightened Def Con from 0.328949 to 0.328949
Heightened Def Con from 0.329492 to 0.329492
Heightened Def Con from 0.329621 to 0.329621
Heightened Def Con from 0.329957 to 0.329957
Heightened Def Con from 0.330086 to 0.330086
Heightened Def Con from 0.33019 to 0.33019
Heightened Def Con from 0.330212 to 0.330212
Heightened Def Con from 0.330526 to 0.330526
Heightened Def Con from 0.331327 to 0.331327
Heightened Def Con from 0.33143 to 0.33143
Heightened Def Con from 0.331482 to 0.331482
Heightened Def Con from 0.331533 to 0.331533
Heightened Def Con from 0.331559 to 0.331559
Heightened Def Con from 0.331637 to 0.331637
Heightened Def Con from 0.331688 to 0.331688
Heightened Def Con from 0.33205 to 0.33205
Heightened Def Con from 0.332283 to 0.332283
Heightened Def Con from 0.332748 to 0.332748
Heightened Def Con from 0.333497 to 0.333497
Heightened Def Con from 0.33373 to 0.33373
Heightened Def Con from 0.333859 to 0.333859
Heightened Def Con from 0.334273 to 0.334273
Heightened Def Con from 0.334298 to 0.334298
Heightened Def Con from 0.334324 to 0.334324
Heightened Def Con from 0.334402 to 0.334402
Heightened Def Con from 0.334557 to 0.334557
Heightened Def Con from 0.334764 to 0.334764
Heightened Def Con from 0.335099 to 0.335099
Heightened Def Con from 0.335203 to 0.335203
Heightened Def Con from 0.33528 to 0.33528
Heightened Def Con from 0.335461 to 0.335461
Heightened Def Con from 0.33559 to 0.33559
Heightened Def Con from 0.335926 to 0.335926
Heightened Def Con from 0.335978 to 0.335978
Heightened Def Con from 0.336055 to 0.336055
Heightened Def Con from 0.336262 to 0.336262
Heightened Def Con from 0.336391 to 0.336391
Heightened Def Con from 0.336417 to 0.336417
Heightened Def Con from 0.336546 to 0.336546
Heightened Def Con from 0.336572 to 0.336572
Heightened Def Con from 0.336701 to 0.336701
Heightened Def Con from 0.336727 to 0.336727
Heightened Def Con from 0.33727 to 0.33727
Heightened Def Con from 0.337554 to 0.337554
Heightened Def Con from 0.337683 to 0.337683
Heightened Def Con from 0.337916 to 0.337916
Heightened Def Con from 0.338149 to 0.338149
Heightened Def Con from 0.338304 to 0.338304
Heightened Def Con from 0.338433 to 0.338433
Heightened Def Con from 0.338976 to 0.338976
Heightened Def Con from 0.339105 to 0.339105
Heightened Def Con from 0.339308 to 0.339308
Heightened Def Con from 0.339415 to 0.339415
Heightened Def Con from 0.339441 to 0.339441
Heightened Def Con from 0.339493 to 0.339493
Heightened Def Con from 0.33957 to 0.33957
Heightened Def Con from 0.339596 to 0.339596
Heightened Def Con from 0.339699 to 0.339699
Heightened Def Con from 0.339803 to 0.339803
Heightened Def Con from 0.339828 to 0.339828
Heightened Def Con from 0.339854 to 0.339854
Heightened Def Con from 0.339983 to 0.339983
Heightened Def Con from 0.340035 to 0.340035
Heightened Def Con from 0.340604 to 0.340604
Heightened Def Con from 0.340655 to 0.340655
Heightened Def Con from 0.340733 to 0.340733
Heightened Def Con from 0.340836 to 0.340836
Heightened Def Con from 0.340888 to 0.340888
Heightened Def Con from 0.341327 to 0.341327
Heightened Def Con from 0.341379 to 0.341379
Heightened Def Con from 0.341405 to 0.341405
Heightened Def Con from 0.341508 to 0.341508
Heightened Def Con from 0.341689 to 0.341689
Heightened Def Con from 0.341715 to 0.341715
Heightened Def Con from 0.341766 to 0.341766
Heightened Def Con from 0.341792 to 0.341792
Heightened Def Con from 0.341921 to 0.341921
Heightened Def Con from 0.342025 to 0.342025
Heightened Def Con from 0.342154 to 0.342154
Heightened Def Con from 0.342335 to 0.342335
Heightened Def Con from 0.342438 to 0.342438
Heightened Def Con from 0.342541 to 0.342541
Heightened Def Con from 0.342955 to 0.342955
Heightened Def Con from 0.343808 to 0.343808
Heightened Def Con from 0.344014 to 0.344014
Heightened Def Con from 0.344531 to 0.344531
Heightened Def Con from 0.344764 to 0.344764
Heightened Def Con from 0.344893 to 0.344893
Heightened Def Con from 0.345125 to 0.345125
Heightened Def Con from 0.345306 to 0.345306
Heightened Def Con from 0.345358 to 0.345358
Heightened Def Con from 0.34572 to 0.34572
Heightened Def Con from 0.346004 to 0.346004
Heightened Def Con from 0.34603 to 0.34603
Heightened Def Con from 0.346056 to 0.346056
Heightened Def Con from 0.346288 to 0.346288
Heightened Def Con from 0.347193 to 0.347193
Heightened Def Con from 0.347219 to 0.347219
Heightened Def Con from 0.347322 to 0.347322
Heightened Def Con from 0.347374 to 0.347374
Heightened Def Con from 0.347555 to 0.347555
Heightened Def Con from 0.347658 to 0.347658
Heightened Def Con from 0.347736 to 0.347736
Heightened Def Con from 0.347787 to 0.347787
Heightened Def Con from 0.347916 to 0.347916
Heightened Def Con from 0.348071 to 0.348071
Heightened Def Con from 0.348149 to 0.348149
Heightened Def Con from 0.348175 to 0.348175
Heightened Def Con from 0.348252 to 0.348252
Heightened Def Con from 0.34895 to 0.34895
Heightened Def Con from 0.349363 to 0.349363
Heightened Def Con from 0.349441 to 0.349441
Heightened Def Con from 0.349596 to 0.349596
Heightened Def Con from 0.34967 to 0.34967
Heightened Def Con from 0.349803 to 0.349803
Heightened Def Con from 0.349828 to 0.349828
Heightened Def Con from 0.35019 to 0.35019
Heightened Def Con from 0.350242 to 0.350242
Heightened Def Con from 0.350604 to 0.350604
Heightened Def Con from 0.350655 to 0.350655
Heightened Def Con from 0.350759 to 0.350759
Heightened Def Con from 0.351353 to 0.351353
Heightened Def Con from 0.35187 to 0.35187
Heightened Def Con from 0.352025 to 0.352025
Heightened Def Con from 0.352077 to 0.352077
Heightened Def Con from 0.35218 to 0.35218
Heightened Def Con from 0.352228 to 0.352228
Heightened Def Con from 0.352335 to 0.352335
Heightened Def Con from 0.352361 to 0.352361
Heightened Def Con from 0.352438 to 0.352438
Heightened Def Con from 0.352645 to 0.352645
Heightened Def Con from 0.352723 to 0.352723
Heightened Def Con from 0.353007 to 0.353007
Heightened Def Con from 0.353084 to 0.353084
Heightened Def Con from 0.35311 to 0.35311
Heightened Def Con from 0.353162 to 0.353162
Heightened Def Con from 0.353188 to 0.353188
Heightened Def Con from 0.353291 to 0.353291
Heightened Def Con from 0.353314 to 0.353314
Heightened Def Con from 0.353317 to 0.353317
Heightened Def Con from 0.353886 to 0.353886
Heightened Def Con from 0.353908 to 0.353908
Heightened Def Con from 0.353937 to 0.353937
Heightened Def Con from 0.354118 to 0.354118
Heightened Def Con from 0.354273 to 0.354273
Heightened Def Con from 0.354351 to 0.354351
Heightened Def Con from 0.354377 to 0.354377
Heightened Def Con from 0.354687 to 0.354687
Heightened Def Con from 0.354713 to 0.354713
Heightened Def Con from 0.354997 to 0.354997
Heightened Def Con from 0.355123 to 0.355123
Heightened Def Con from 0.355126 to 0.355126
Heightened Def Con from 0.355178 to 0.355178
Heightened Def Con from 0.355281 to 0.355281
Heightened Def Con from 0.355927 to 0.355927
Heightened Def Con from 0.355979 to 0.355979
Heightened Def Con from 0.35603 to 0.35603
Heightened Def Con from 0.35634 to 0.35634
Heightened Def Con from 0.356521 to 0.356521
Heightened Def Con from 0.356754 to 0.356754
Heightened Def Con from 0.356805 to 0.356805
Heightened Def Con from 0.356831 to 0.356831
Heightened Def Con from 0.357086 to 0.357086
Heightened Def Con from 0.357193 to 0.357193
Heightened Def Con from 0.357425 to 0.357425
Heightened Def Con from 0.357477 to 0.357477
Heightened Def Con from 0.358278 to 0.358278
Heightened Def Con from 0.358356 to 0.358356
Heightened Def Con from 0.358536 to 0.358536
Heightened Def Con from 0.358847 to 0.358847
Heightened Def Con from 0.360009 to 0.360009
Heightened Def Con from 0.360061 to 0.360061
Heightened Def Con from 0.360319 to 0.360319
Heightened Def Con from 0.360474 to 0.360474
Heightened Def Con from 0.360965 to 0.360965
Heightened Def Con from 0.360991 to 0.360991
Heightened Def Con from 0.361069 to 0.361069
Heightened Def Con from 0.361094 to 0.361094
Heightened Def Con from 0.361146 to 0.361146
Heightened Def Con from 0.361534 to 0.361534
Heightened Def Con from 0.361637 to 0.361637
Heightened Def Con from 0.362102 to 0.362102
Heightened Def Con from 0.362335 to 0.362335
Heightened Def Con from 0.362564 to 0.362564
Heightened Def Con from 0.362645 to 0.362645
Heightened Def Con from 0.362774 to 0.362774
Heightened Def Con from 0.3628 to 0.3628
Heightened Def Con from 0.362929 to 0.362929
Heightened Def Con from 0.363007 to 0.363007
Heightened Def Con from 0.363498 to 0.363498
Heightened Def Con from 0.363679 to 0.363679
Heightened Def Con from 0.363756 to 0.363756
Heightened Def Con from 0.363782 to 0.363782
Heightened Def Con from 0.364066 to 0.364066
Heightened Def Con from 0.36417 to 0.36417
Heightened Def Con from 0.364196 to 0.364196
Heightened Def Con from 0.364454 to 0.364454
Heightened Def Con from 0.364609 to 0.364609
Heightened Def Con from 0.365048 to 0.365048
Heightened Def Con from 0.365071 to 0.365071
Heightened Def Con from 0.365074 to 0.365074
Heightened Def Con from 0.3651 to 0.3651
Heightened Def Con from 0.365126 to 0.365126
Heightened Def Con from 0.365229 to 0.365229
Heightened Def Con from 0.365462 to 0.365462
Heightened Def Con from 0.365591 to 0.365591
Heightened Def Con from 0.365694 to 0.365694
Heightened Def Con from 0.366134 to 0.366134
Heightened Def Con from 0.36616 to 0.36616
Heightened Def Con from 0.366366 to 0.366366
Heightened Def Con from 0.366496 to 0.366496
Heightened Def Con from 0.366573 to 0.366573
Heightened Def Con from 0.366728 to 0.366728
Heightened Def Con from 0.367167 to 0.367167
Heightened Def Con from 0.367193 to 0.367193
Heightened Def Con from 0.367529 to 0.367529
Heightened Def Con from 0.367607 to 0.367607
Heightened Def Con from 0.367865 to 0.367865
Heightened Def Con from 0.368278 to 0.368278
Heightened Def Con from 0.368459 to 0.368459
Heightened Def Con from 0.368563 to 0.368563
Heightened Def Con from 0.368692 to 0.368692
Heightened Def Con from 0.368976 to 0.368976
Heightened Def Con from 0.369028 to 0.369028
Heightened Def Con from 0.369157 to 0.369157
Heightened Def Con from 0.369312 to 0.369312
Heightened Def Con from 0.369467 to 0.369467
Heightened Def Con from 0.369622 to 0.369622
Heightened Def Con from 0.369648 to 0.369648
Heightened Def Con from 0.370062 to 0.370062
Heightened Def Con from 0.370088 to 0.370088
Heightened Def Con from 0.370657 to 0.370657
Heightened Def Con from 0.370915 to 0.370915
Heightened Def Con from 0.371277 to 0.371277
Heightened Def Con from 0.371354 to 0.371354
Heightened Def Con from 0.371484 to 0.371484
Heightened Def Con from 0.371665 to 0.371665
Heightened Def Con from 0.37182 to 0.37182
Heightened Def Con from 0.372104 to 0.372104
Heightened Def Con from 0.37213 to 0.37213
Heightened Def Con from 0.372156 to 0.372156
Heightened Def Con from 0.372311 to 0.372311
Heightened Def Con from 0.372543 to 0.372543
Heightened Def Con from 0.372595 to 0.372595
Heightened Def Con from 0.372621 to 0.372621
Heightened Def Con from 0.372672 to 0.372672
Heightened Def Con from 0.373163 to 0.373163
Heightened Def Con from 0.373499 to 0.373499
Heightened Def Con from 0.373577 to 0.373577
Heightened Def Con from 0.373603 to 0.373603
Heightened Def Con from 0.373654 to 0.373654
Heightened Def Con from 0.373784 to 0.373784
Heightened Def Con from 0.374197 to 0.374197
Heightened Def Con from 0.374792 to 0.374792
Heightened Def Con from 0.374818 to 0.374818
Heightened Def Con from 0.374843 to 0.374843
Heightened Def Con from 0.374895 to 0.374895
Heightened Def Con from 0.375024 to 0.375024
Heightened Def Con from 0.375334 to 0.375334
Heightened Def Con from 0.37536 to 0.37536
Heightened Def Con from 0.375386 to 0.375386
Heightened Def Con from 0.375567 to 0.375567
Heightened Def Con from 0.3758 to 0.3758
Heightened Def Con from 0.376342 to 0.376342
Heightened Def Con from 0.376497 to 0.376497
Heightened Def Con from 0.376523 to 0.376523
Heightened Def Con from 0.376653 to 0.376653
Heightened Def Con from 0.376704 to 0.376704
Heightened Def Con from 0.376963 to 0.376963
Heightened Def Con from 0.377195 to 0.377195
Heightened Def Con from 0.377841 to 0.377841
Heightened Def Con from 0.378074 to 0.378074
Heightened Def Con from 0.378203 to 0.378203
Heightened Def Con from 0.378617 to 0.378617
Heightened Def Con from 0.379159 to 0.379159
Heightened Def Con from 0.379211 to 0.379211
Heightened Def Con from 0.379237 to 0.379237
Heightened Def Con from 0.380038 to 0.380038
Heightened Def Con from 0.380115 to 0.380115
Heightened Def Con from 0.380219 to 0.380219
Heightened Def Con from 0.38027 to 0.38027
Heightened Def Con from 0.380942 to 0.380942
Heightened Def Con from 0.381072 to 0.381072
Heightened Def Con from 0.381278 to 0.381278
Heightened Def Con from 0.381692 to 0.381692
Heightened Def Con from 0.382054 to 0.382054
Heightened Def Con from 0.382312 to 0.382312
Heightened Def Con from 0.382467 to 0.382467
Heightened Def Con from 0.382674 to 0.382674
Heightened Def Con from 0.3827 to 0.3827
Heightened Def Con from 0.382726 to 0.382726
Heightened Def Con from 0.382751 to 0.382751
Heightened Def Con from 0.382855 to 0.382855
Heightened Def Con from 0.382958 to 0.382958
Heightened Def Con from 0.383036 to 0.383036
Heightened Def Con from 0.383217 to 0.383217
Heightened Def Con from 0.383242 to 0.383242
Heightened Def Con from 0.383346 to 0.383346
Heightened Def Con from 0.383449 to 0.383449
Heightened Def Con from 0.383501 to 0.383501
Heightened Def Con from 0.383656 to 0.383656
Heightened Def Con from 0.384431 to 0.384431
Heightened Def Con from 0.384457 to 0.384457
Heightened Def Con from 0.384586 to 0.384586
Heightened Def Con from 0.385 to 0.385
Heightened Def Con from 0.385077 to 0.385077
Heightened Def Con from 0.385155 to 0.385155
Heightened Def Con from 0.385439 to 0.385439
Heightened Def Con from 0.385491 to 0.385491
Heightened Def Con from 0.385568 to 0.385568
Heightened Def Con from 0.38562 to 0.38562
Heightened Def Con from 0.385646 to 0.385646
Heightened Def Con from 0.385723 to 0.385723
Heightened Def Con from 0.386159 to 0.386159
Heightened Def Con from 0.386189 to 0.386189
Heightened Def Con from 0.386628 to 0.386628
Heightened Def Con from 0.386783 to 0.386783
Heightened Def Con from 0.386809 to 0.386809
Heightened Def Con from 0.386835 to 0.386835
Heightened Def Con from 0.386912 to 0.386912
Heightened Def Con from 0.387429 to 0.387429
Heightened Def Con from 0.387455 to 0.387455
Heightened Def Con from 0.387765 to 0.387765
Heightened Def Con from 0.387868 to 0.387868
Heightened Def Con from 0.388256 to 0.388256
Heightened Def Con from 0.388385 to 0.388385
Heightened Def Con from 0.388488 to 0.388488
Heightened Def Con from 0.388666 to 0.388666
Heightened Def Con from 0.38885 to 0.38885
Heightened Def Con from 0.389083 to 0.389083
Heightened Def Con from 0.389496 to 0.389496
Heightened Def Con from 0.38991 to 0.38991
Heightened Def Con from 0.390065 to 0.390065
Heightened Def Con from 0.39022 to 0.39022
Heightened Def Con from 0.390375 to 0.390375
Heightened Def Con from 0.390582 to 0.390582
Heightened Def Con from 0.390943 to 0.390943
Heightened Def Con from 0.391124 to 0.391124
Heightened Def Con from 0.391176 to 0.391176
Heightened Def Con from 0.391228 to 0.391228
Heightened Def Con from 0.391331 to 0.391331
Heightened Def Con from 0.391693 to 0.391693
Heightened Def Con from 0.391822 to 0.391822
Heightened Def Con from 0.391848 to 0.391848
Heightened Def Con from 0.392003 to 0.392003
Heightened Def Con from 0.392106 to 0.392106
Heightened Def Con from 0.392158 to 0.392158
Heightened Def Con from 0.392339 to 0.392339
Heightened Def Con from 0.39252 to 0.39252
Heightened Def Con from 0.392649 to 0.392649
Heightened Def Con from 0.392675 to 0.392675
Heightened Def Con from 0.392881 to 0.392881
Heightened Def Con from 0.393033 to 0.393033
Heightened Def Con from 0.393088 to 0.393088
Heightened Def Con from 0.39314 to 0.39314
Heightened Def Con from 0.393398 to 0.393398
Heightened Def Con from 0.393424 to 0.393424
Heightened Def Con from 0.39376 to 0.39376
Heightened Def Con from 0.394199 to 0.394199
Heightened Def Con from 0.394768 to 0.394768
Heightened Def Con from 0.394819 to 0.394819
Heightened Def Con from 0.394923 to 0.394923
Heightened Def Con from 0.395207 to 0.395207
Heightened Def Con from 0.395259 to 0.395259
Heightened Def Con from 0.39562 to 0.39562
Heightened Def Con from 0.395646 to 0.395646
Heightened Def Con from 0.395698 to 0.395698
Heightened Def Con from 0.397403 to 0.397403
Heightened Def Con from 0.397946 to 0.397946
Heightened Def Con from 0.398075 to 0.398075
Heightened Def Con from 0.398126 to 0.398126
Heightened Def Con from 0.398281 to 0.398281
Heightened Def Con from 0.398462 to 0.398462
Heightened Def Con from 0.398617 to 0.398617
Heightened Def Con from 0.398669 to 0.398669
Heightened Def Con from 0.398721 to 0.398721
Heightened Def Con from 0.398876 to 0.398876
Heightened Def Con from 0.399057 to 0.399057
Heightened Def Con from 0.399444 to 0.399444
Heightened Def Con from 0.399573 to 0.399573
Heightened Def Con from 0.399677 to 0.399677
Heightened Def Con from 0.399857 to 0.399857
Heightened Def Con from 0.400632 to 0.400632
Heightened Def Con from 0.400684 to 0.400684
Heightened Def Con from 0.40071 to 0.40071
Heightened Def Con from 0.400736 to 0.400736
Heightened Def Con from 0.401123 to 0.401123
Heightened Def Con from 0.401743 to 0.401743
Heightened Def Con from 0.401821 to 0.401821
Heightened Def Con from 0.401924 to 0.401924
Heightened Def Con from 0.40195 to 0.40195
Heightened Def Con from 0.402028 to 0.402028
Heightened Def Con from 0.402079 to 0.402079
Heightened Def Con from 0.402183 to 0.402183
Heightened Def Con from 0.40257 to 0.40257
Heightened Def Con from 0.402699 to 0.402699
Heightened Def Con from 0.402854 to 0.402854
Heightened Def Con from 0.403061 to 0.403061
Heightened Def Con from 0.403164 to 0.403164
Heightened Def Con from 0.4035 to 0.4035
Heightened Def Con from 0.403578 to 0.403578
Heightened Def Con from 0.403785 to 0.403785
Heightened Def Con from 0.404198 to 0.404198
Heightened Def Con from 0.404405 to 0.404405
Heightened Def Con from 0.404534 to 0.404534
Heightened Def Con from 0.404689 to 0.404689
Heightened Def Con from 0.404741 to 0.404741
Heightened Def Con from 0.404766 to 0.404766
Heightened Def Con from 0.405025 to 0.405025
Heightened Def Con from 0.405102 to 0.405102
Heightened Def Con from 0.405335 to 0.405335
Heightened Def Con from 0.405361 to 0.405361
Heightened Def Con from 0.405412 to 0.405412
Heightened Def Con from 0.405771 to 0.405771
Heightened Def Con from 0.4058 to 0.4058
Heightened Def Con from 0.405955 to 0.405955
Heightened Def Con from 0.405981 to 0.405981
Heightened Def Con from 0.406032 to 0.406032
Heightened Def Con from 0.406162 to 0.406162
Heightened Def Con from 0.406291 to 0.406291
Heightened Def Con from 0.406911 to 0.406911
Heightened Def Con from 0.407014 to 0.407014
Heightened Def Con from 0.407066 to 0.407066
Heightened Def Con from 0.407195 to 0.407195
Heightened Def Con from 0.407324 to 0.407324
Heightened Def Con from 0.407789 to 0.407789
Heightened Def Con from 0.408044 to 0.408044
Heightened Def Con from 0.408203 to 0.408203
Heightened Def Con from 0.408719 to 0.408719
Heightened Def Con from 0.409081 to 0.409081
Heightened Def Con from 0.40921 to 0.40921
Heightened Def Con from 0.409546 to 0.409546
Heightened Def Con from 0.40965 to 0.40965
Heightened Def Con from 0.409675 to 0.409675
Heightened Def Con from 0.409779 to 0.409779
Heightened Def Con from 0.410115 to 0.410115
Heightened Def Con from 0.41014 to 0.41014
Heightened Def Con from 0.410244 to 0.410244
Heightened Def Con from 0.410347 to 0.410347
Heightened Def Con from 0.410425 to 0.410425
Heightened Def Con from 0.411096 to 0.411096
Heightened Def Con from 0.411119 to 0.411119
Heightened Def Con from 0.411355 to 0.411355
Heightened Def Con from 0.411716 to 0.411717
Heightened Def Con from 0.411872 to 0.411872
Heightened Def Con from 0.412259 to 0.412259
Heightened Def Con from 0.41244 to 0.41244
Heightened Def Con from 0.412647 to 0.412647
Heightened Def Con from 0.412776 to 0.412776
Heightened Def Con from 0.412957 to 0.412957
Heightened Def Con from 0.412983 to 0.412983
Heightened Def Con from 0.413008 to 0.413008
Heightened Def Con from 0.413163 to 0.413163
Heightened Def Con from 0.413473 to 0.413473
Heightened Def Con from 0.413783 to 0.413783
Heightened Def Con from 0.414042 to 0.414042
Heightened Def Con from 0.414068 to 0.414068
Heightened Def Con from 0.414429 to 0.414429
Heightened Def Con from 0.414584 to 0.414584
Heightened Def Con from 0.414739 to 0.414739
Heightened Def Con from 0.415308 to 0.415308
Heightened Def Con from 0.415334 to 0.415334
Heightened Def Con from 0.415489 to 0.415489
Heightened Def Con from 0.415747 to 0.415747
Heightened Def Con from 0.416005 to 0.416005
Heightened Def Con from 0.416341 to 0.416341
Heightened Def Con from 0.416961 to 0.416961
Heightened Def Con from 0.416987 to 0.416987
Heightened Def Con from 0.417165 to 0.417165
Heightened Def Con from 0.41722 to 0.41722
Heightened Def Con from 0.417504 to 0.417504
Heightened Def Con from 0.41763 to 0.41763
Heightened Def Con from 0.417892 to 0.417892
Heightened Def Con from 0.417917 to 0.417917
Heightened Def Con from 0.418047 to 0.418047
Heightened Def Con from 0.418098 to 0.418098
Heightened Def Con from 0.418586 to 0.418586
Heightened Def Con from 0.41877 to 0.41877
Heightened Def Con from 0.419183 to 0.419183
Heightened Def Con from 0.419516 to 0.419516
Heightened Def Con from 0.419519 to 0.419519
Heightened Def Con from 0.419597 to 0.419597
Heightened Def Con from 0.419648 to 0.419648
Heightened Def Con from 0.420036 to 0.420036
Heightened Def Con from 0.420476 to 0.420476
Heightened Def Con from 0.421018 to 0.421018
Heightened Def Con from 0.421044 to 0.421044
Heightened Def Con from 0.421251 to 0.421251
Heightened Def Con from 0.42138 to 0.42138
Heightened Def Con from 0.421845 to 0.421845
Heightened Def Con from 0.421922 to 0.421922
Heightened Def Con from 0.422129 to 0.422129
Heightened Def Con from 0.422207 to 0.422207
Heightened Def Con from 0.422413 to 0.422413
Heightened Def Con from 0.422697 to 0.422697
Heightened Def Con from 0.422956 to 0.422956
Heightened Def Con from 0.423318 to 0.423318
Heightened Def Con from 0.423834 to 0.423834
Heightened Def Con from 0.424067 to 0.424067
Heightened Def Con from 0.424115 to 0.424115
Heightened Def Con from 0.424119 to 0.424119
Heightened Def Con from 0.424196 to 0.424196
Heightened Def Con from 0.424222 to 0.424222
Heightened Def Con from 0.424429 to 0.424429
Heightened Def Con from 0.424532 to 0.424532
Heightened Def Con from 0.424558 to 0.424558
Heightened Def Con from 0.424713 to 0.424713
Heightened Def Con from 0.42489 to 0.42489
Heightened Def Con from 0.424942 to 0.424942
Heightened Def Con from 0.424997 to 0.424997
Heightened Def Con from 0.425126 to 0.425126
Heightened Def Con from 0.425333 to 0.425333
Heightened Def Con from 0.425824 to 0.425824
Heightened Def Con from 0.42585 to 0.42585
Heightened Def Con from 0.425901 to 0.425901
Heightened Def Con from 0.426031 to 0.426031
Heightened Def Con from 0.426134 to 0.426134
Heightened Def Con from 0.426341 to 0.426341
Heightened Def Con from 0.426444 to 0.426444
Heightened Def Con from 0.426776 to 0.426776
Heightened Def Con from 0.427013 to 0.427013
Heightened Def Con from 0.427193 to 0.427193
Heightened Def Con from 0.427219 to 0.427219
Heightened Def Con from 0.428175 to 0.428175
Heightened Def Con from 0.428227 to 0.428227
Heightened Def Con from 0.429287 to 0.429287
Heightened Def Con from 0.429467 to 0.429467
Heightened Def Con from 0.429622 to 0.429622
Heightened Def Con from 0.4297 to 0.4297
Heightened Def Con from 0.429726 to 0.429726
Heightened Def Con from 0.429803 to 0.429803
Heightened Def Con from 0.430785 to 0.430785
Heightened Def Con from 0.431406 to 0.431406
Heightened Def Con from 0.431561 to 0.431561
Heightened Def Con from 0.432181 to 0.432181
Heightened Def Con from 0.43231 to 0.43231
Heightened Def Con from 0.432332 to 0.432332
Heightened Def Con from 0.432646 to 0.432646
Heightened Def Con from 0.432668 to 0.432668
Heightened Def Con from 0.432672 to 0.432672
Heightened Def Con from 0.432698 to 0.432698
Heightened Def Con from 0.43293 to 0.43293
Heightened Def Con from 0.432956 to 0.432956
Heightened Def Con from 0.433189 to 0.433189
Heightened Def Con from 0.433263 to 0.433263
Heightened Def Con from 0.433576 to 0.433576
Heightened Def Con from 0.433731 to 0.433731
Heightened Def Con from 0.433757 to 0.433757
Heightened Def Con from 0.433809 to 0.433809
Heightened Def Con from 0.43399 to 0.43399
Heightened Def Con from 0.434067 to 0.434067
Heightened Def Con from 0.434197 to 0.434197
Heightened Def Con from 0.435175 to 0.435175
Heightened Def Con from 0.435566 to 0.435566
Heightened Def Con from 0.435747 to 0.435747
Heightened Def Con from 0.436083 to 0.436083
Heightened Def Con from 0.436109 to 0.436109
Heightened Def Con from 0.436445 to 0.436445
Heightened Def Con from 0.436755 to 0.436755
Heightened Def Con from 0.436806 to 0.436806
Heightened Def Con from 0.436832 to 0.436832
Heightened Def Con from 0.436858 to 0.436858
Heightened Def Con from 0.437035 to 0.437035
Heightened Def Con from 0.437478 to 0.437478
Heightened Def Con from 0.437504 to 0.437504
Heightened Def Con from 0.43753 to 0.43753
Heightened Def Con from 0.437608 to 0.437608
Heightened Def Con from 0.437737 to 0.437737
Heightened Def Con from 0.437814 to 0.437814
Heightened Def Con from 0.438073 to 0.438073
Heightened Def Con from 0.438176 to 0.438176
Heightened Def Con from 0.438254 to 0.438254
Heightened Def Con from 0.438383 to 0.438383
Heightened Def Con from 0.438796 to 0.438796
Heightened Def Con from 0.439029 to 0.439029
Heightened Def Con from 0.439236 to 0.439236
Heightened Def Con from 0.439417 to 0.439417
Heightened Def Con from 0.439753 to 0.439753
Heightened Def Con from 0.439778 to 0.439778
Heightened Def Con from 0.439908 to 0.439908
Heightened Def Con from 0.439934 to 0.439934
Heightened Def Con from 0.439985 to 0.439985
Heightened Def Con from 0.440011 to 0.440011
Heightened Def Con from 0.440089 to 0.440089
Heightened Def Con from 0.440528 to 0.440528
Heightened Def Con from 0.440554 to 0.440554
Heightened Def Con from 0.441045 to 0.441045
Heightened Def Con from 0.441226 to 0.441226
Heightened Def Con from 0.441433 to 0.441433
Heightened Def Con from 0.441665 to 0.441665
Heightened Def Con from 0.441872 to 0.441872
Heightened Def Con from 0.442156 to 0.442156
Heightened Def Con from 0.442389 to 0.442389
[...]
Heightened Def Con from 1.05572 to 1.05572
Heightened Def Con from 1.05593 to 1.05593
Heightened Def Con from 1.05596 to 1.05596
Heightened Def Con from 1.05617 to 1.05617
Heightened Def Con from 1.05622 to 1.05622
Heightened Def Con from 1.05627 to 1.05627
Heightened Def Con from 1.05629 to 1.05629
Heightened Def Con from 1.05635 to 1.05635
Heightened Def Con from 1.0564 to 1.0564
Heightened Def Con from 1.05645 to 1.05645
Heightened Def Con from 1.05686 to 1.05686
Heightened Def Con from 1.05697 to 1.05697
Heightened Def Con from 1.05707 to 1.05707
Heightened Def Con from 1.0572 to 1.0572
Heightened Def Con from 1.05779 to 1.05779
Heightened Def Con from 1.05839 to 1.05839
Heightened Def Con from 1.05841 to 1.05841
Heightened Def Con from 1.05844 to 1.05844
Heightened Def Con from 1.05857 to 1.05857
Heightened Def Con from 1.05867 to 1.05867
Heightened Def Con from 1.05872 to 1.05872
Heightened Def Con from 1.05878 to 1.05878
Heightened Def Con from 1.05893 to 1.05893
Heightened Def Con from 1.05896 to 1.05896
Heightened Def Con from 1.05916 to 1.05916
Heightened Def Con from 1.05932 to 1.05932
Heightened Def Con from 1.05999 to 1.05999
Heightened Def Con from 1.06022 to 1.06022
Heightened Def Con from 1.06043 to 1.06043
Heightened Def Con from 1.06058 to 1.06058
Heightened Def Con from 1.06077 to 1.06077
Heightened Def Con from 1.06092 to 1.06092
Heightened Def Con from 1.06108 to 1.06108
Heightened Def Con from 1.06113 to 1.06113
Heightened Def Con from 1.06121 to 1.06121
Heightened Def Con from 1.06123 to 1.06123
Heightened Def Con from 1.06139 to 1.06139
Heightened Def Con from 1.06175 to 1.06175
Heightened Def Con from 1.06183 to 1.06183
Heightened Def Con from 1.06201 to 1.06201
Heightened Def Con from 1.06206 to 1.06206
Heightened Def Con from 1.06224 to 1.06224
Heightened Def Con from 1.0625 to 1.0625
Heightened Def Con from 1.06265 to 1.06265
Heightened Def Con from 1.06268 to 1.06268
Heightened Def Con from 1.06273 to 1.06273
Heightened Def Con from 1.06276 to 1.06276
Heightened Def Con from 1.06299 to 1.06299
Heightened Def Con from 1.06306 to 1.06306
Heightened Def Con from 1.06322 to 1.06322
Heightened Def Con from 1.06343 to 1.06343
Heightened Def Con from 1.06358 to 1.06358
Heightened Def Con from 1.06366 to 1.06366
Heightened Def Con from 1.06382 to 1.06382
Heightened Def Con from 1.06428 to 1.06428
Heightened Def Con from 1.06438 to 1.06438
Heightened Def Con from 1.06441 to 1.06441
Heightened Def Con from 1.06495 to 1.06495
Heightened Def Con from 1.06565 to 1.06565
Heightened Def Con from 1.06604 to 1.06604
Heightened Def Con from 1.06622 to 1.06622
Heightened Def Con from 1.06624 to 1.06624
Heightened Def Con from 1.0663 to 1.0663
Heightened Def Con from 1.06645 to 1.06645
Heightened Def Con from 1.06661 to 1.06661
Heightened Def Con from 1.06689 to 1.06689
Heightened Def Con from 1.06692 to 1.06692
Heightened Def Con from 1.06718 to 1.06718
Heightened Def Con from 1.06754 to 1.06754
Heightened Def Con from 1.06761 to 1.06761
Heightened Def Con from 1.06774 to 1.06774
Heightened Def Con from 1.068 to 1.068
Heightened Def Con from 1.06813 to 1.06813
Heightened Def Con from 1.06878 to 1.06878
Heightened Def Con from 1.06883 to 1.06883
Heightened Def Con from 1.06901 to 1.06901
Heightened Def Con from 1.06932 to 1.06932
Heightened Def Con from 1.0695 to 1.0695
Heightened Def Con from 1.06958 to 1.06958
Heightened Def Con from 1.0696 to 1.0696
Heightened Def Con from 1.06976 to 1.06976
Heightened Def Con from 1.07002 to 1.07002
Heightened Def Con from 1.07009 to 1.07009
Heightened Def Con from 1.0702 to 1.0702
Heightened Def Con from 1.07048 to 1.07048
Heightened Def Con from 1.07061 to 1.07061
Heightened Def Con from 1.07077 to 1.07077
Heightened Def Con from 1.07108 to 1.07108
Heightened Def Con from 1.07113 to 1.07113
Heightened Def Con from 1.07121 to 1.07121
Heightened Def Con from 1.07126 to 1.07126
Heightened Def Con from 1.07128 to 1.07128
Heightened Def Con from 1.07144 to 1.07144
Heightened Def Con from 1.07196 to 1.07196
Heightened Def Con from 1.07232 to 1.07232
Heightened Def Con from 1.07247 to 1.07247
Heightened Def Con from 1.07343 to 1.07343
Heightened Def Con from 1.07348 to 1.07348
Heightened Def Con from 1.07351 to 1.07351
Heightened Def Con from 1.07376 to 1.07376
Heightened Def Con from 1.07382 to 1.07382
Heightened Def Con from 1.07392 to 1.07392
Heightened Def Con from 1.0741 to 1.0741
Heightened Def Con from 1.07436 to 1.07436
Heightened Def Con from 1.07472 to 1.07472
Heightened Def Con from 1.07495 to 1.07495
Heightened Def Con from 1.07503 to 1.07503
Heightened Def Con from 1.07503 to 1.07503
Heightened Def Con from 1.07516 to 1.07516
Heightened Def Con from 1.07554 to 1.07554
Heightened Def Con from 1.07555 to 1.07555
Heightened Def Con from 1.07568 to 1.07568
Heightened Def Con from 1.07578 to 1.07578
Heightened Def Con from 1.07588 to 1.07588
Heightened Def Con from 1.07632 to 1.07632
Heightened Def Con from 1.0764 to 1.0764
Heightened Def Con from 1.07665 to 1.07665
Heightened Def Con from 1.07692 to 1.07692
Heightened Def Con from 1.07702 to 1.07702
Heightened Def Con from 1.0772 to 1.0772
Heightened Def Con from 1.0773 to 1.0773
Heightened Def Con from 1.07759 to 1.07759
Heightened Def Con from 1.07826 to 1.07826
Heightened Def Con from 1.07829 to 1.07829
Heightened Def Con from 1.07834 to 1.07834
Heightened Def Con from 1.07873 to 1.07873
Heightened Def Con from 1.07898 to 1.07898
Heightened Def Con from 1.07953 to 1.07953
Heightened Def Con from 1.0796 to 1.0796
Heightened Def Con from 1.07976 to 1.07976
Heightened Def Con from 1.07994 to 1.07994
Heightened Def Con from 1.0802 to 1.0802
Heightened Def Con from 1.08033 to 1.08033
Heightened Def Con from 1.08048 to 1.08048
Heightened Def Con from 1.08053 to 1.08053
Heightened Def Con from 1.08082 to 1.08082
Heightened Def Con from 1.08097 to 1.08097
Heightened Def Con from 1.081 to 1.081
Heightened Def Con from 1.08103 to 1.08103
Heightened Def Con from 1.08118 to 1.08118
Heightened Def Con from 1.0817 to 1.0817
Heightened Def Con from 1.08185 to 1.08185
Heightened Def Con from 1.08193 to 1.08193
Heightened Def Con from 1.08198 to 1.08198
Heightened Def Con from 1.08208 to 1.08208
Heightened Def Con from 1.08221 to 1.08221
Heightened Def Con from 1.08265 to 1.08265
Heightened Def Con from 1.08278 to 1.08278
Heightened Def Con from 1.08281 to 1.08281
Heightened Def Con from 1.08299 to 1.08299
Heightened Def Con from 1.08304 to 1.08304
Heightened Def Con from 1.08314 to 1.08314
Heightened Def Con from 1.08325 to 1.08325
Heightened Def Con from 1.08348 to 1.08348
Heightened Def Con from 1.08366 to 1.08366
Heightened Def Con from 1.084 to 1.084
Heightened Def Con from 1.08444 to 1.08444
Heightened Def Con from 1.08469 to 1.08469
Heightened Def Con from 1.0849 to 1.0849
Heightened Def Con from 1.085 to 1.085
Heightened Def Con from 1.08511 to 1.08511
Heightened Def Con from 1.08521 to 1.08521
Heightened Def Con from 1.08524 to 1.08524
Heightened Def Con from 1.08539 to 1.08539
Heightened Def Con from 1.08562 to 1.08562
Heightened Def Con from 1.08565 to 1.08565
Heightened Def Con from 1.08594 to 1.08594
Heightened Def Con from 1.08617 to 1.08617
Heightened Def Con from 1.08661 to 1.08661
Heightened Def Con from 1.08666 to 1.08666
Heightened Def Con from 1.08669 to 1.08669
Heightened Def Con from 1.08671 to 1.08671
Heightened Def Con from 1.08687 to 1.08687
Heightened Def Con from 1.08702 to 1.08702
Heightened Def Con from 1.0872 to 1.0872
Heightened Def Con from 1.08733 to 1.08733
Heightened Def Con from 1.08738 to 1.08738
Heightened Def Con from 1.08787 to 1.08787
Heightened Def Con from 1.08795 to 1.08795
Heightened Def Con from 1.08888 to 1.08888
Heightened Def Con from 1.08914 to 1.08914
Heightened Def Con from 1.08919 to 1.08919
Heightened Def Con from 1.08937 to 1.08937
Heightened Def Con from 1.08942 to 1.08942
Heightened Def Con from 1.08968 to 1.08968
Heightened Def Con from 1.08986 to 1.08986
Heightened Def Con from 1.08989 to 1.08989
Heightened Def Con from 1.08997 to 1.08997
Heightened Def Con from 1.09004 to 1.09004
Heightened Def Con from 1.09048 to 1.09048
Heightened Def Con from 1.09054 to 1.09054
Heightened Def Con from 1.09066 to 1.09066
Heightened Def Con from 1.09074 to 1.09074
Heightened Def Con from 1.09079 to 1.09079
Heightened Def Con from 1.09085 to 1.09085
Heightened Def Con from 1.09092 to 1.09092
Heightened Def Con from 1.091 to 1.091
Heightened Def Con from 1.09105 to 1.09105
Heightened Def Con from 1.09108 to 1.09108
Heightened Def Con from 1.09141 to 1.09141
Heightened Def Con from 1.09159 to 1.09159
Heightened Def Con from 1.09172 to 1.09172
Heightened Def Con from 1.0919 to 1.0919
Heightened Def Con from 1.09191 to 1.09191
Heightened Def Con from 1.09216 to 1.09216
Heightened Def Con from 1.09222 to 1.09222
Heightened Def Con from 1.09234 to 1.09234
Heightened Def Con from 1.09268 to 1.09268
Heightened Def Con from 1.09273 to 1.09273
Heightened Def Con from 1.09286 to 1.09286
Heightened Def Con from 1.09289 to 1.09289
Heightened Def Con from 1.09302 to 1.09302
Heightened Def Con from 1.09309 to 1.09309
Heightened Def Con from 1.09315 to 1.09315
Heightened Def Con from 1.0932 to 1.0932
Heightened Def Con from 1.0933 to 1.0933
Heightened Def Con from 1.09338 to 1.09338
Heightened Def Con from 1.09358 to 1.09358
Heightened Def Con from 1.09366 to 1.09366
Heightened Def Con from 1.09371 to 1.09371
Heightened Def Con from 1.09374 to 1.09374
Heightened Def Con from 1.09392 to 1.09392
Heightened Def Con from 1.09408 to 1.09408
Heightened Def Con from 1.09413 to 1.09413
Heightened Def Con from 1.09428 to 1.09428
Heightened Def Con from 1.09446 to 1.09446
Heightened Def Con from 1.09454 to 1.09454
Heightened Def Con from 1.09459 to 1.09459
Heightened Def Con from 1.09488 to 1.09488
Heightened Def Con from 1.09552 to 1.09552
Heightened Def Con from 1.09581 to 1.09581
Heightened Def Con from 1.09586 to 1.09586
Heightened Def Con from 1.09594 to 1.09594
Heightened Def Con from 1.09604 to 1.09604
Heightened Def Con from 1.0962 to 1.0962
Heightened Def Con from 1.09635 to 1.09635
Heightened Def Con from 1.09656 to 1.09656
Heightened Def Con from 1.09682 to 1.09682
Heightened Def Con from 1.09689 to 1.09689
Heightened Def Con from 1.097 to 1.097
Heightened Def Con from 1.09705 to 1.09705
Heightened Def Con from 1.09715 to 1.09715
Heightened Def Con from 1.09728 to 1.09728
Heightened Def Con from 1.09731 to 1.09731
Heightened Def Con from 1.09744 to 1.09744
Heightened Def Con from 1.09751 to 1.09751
Heightened Def Con from 1.09767 to 1.09767
Heightened Def Con from 1.09811 to 1.09811
Heightened Def Con from 1.09821 to 1.09821
Heightened Def Con from 1.09829 to 1.09829
Heightened Def Con from 1.09873 to 1.09873
Heightened Def Con from 1.09878 to 1.09878
Heightened Def Con from 1.0988 to 1.0988
Heightened Def Con from 1.09886 to 1.09886
Heightened Def Con from 1.09922 to 1.09922
Heightened Def Con from 1.09968 to 1.09968
Heightened Def Con from 1.09986 to 1.09986
Heightened Def Con from 1.10004 to 1.10004
Heightened Def Con from 1.10054 to 1.10054
Heightened Def Con from 1.10059 to 1.10059
Heightened Def Con from 1.10066 to 1.10066
Heightened Def Con from 1.10079 to 1.10079
Heightened Def Con from 1.10084 to 1.10084
Heightened Def Con from 1.1009 to 1.1009
Heightened Def Con from 1.10095 to 1.10095
Heightened Def Con from 1.10102 to 1.10102
Heightened Def Con from 1.10105 to 1.10105
Heightened Def Con from 1.10126 to 1.10126
Heightened Def Con from 1.10126 to 1.10126
Heightened Def Con from 1.10134 to 1.10134
Heightened Def Con from 1.10139 to 1.10139
Heightened Def Con from 1.10157 to 1.10157
Heightened Def Con from 1.10165 to 1.10165
Heightened Def Con from 1.10185 to 1.10185
Heightened Def Con from 1.10211 to 1.10211
Heightened Def Con from 1.10219 to 1.10219
Heightened Def Con from 1.10229 to 1.10229
Heightened Def Con from 1.1026 to 1.1026
Heightened Def Con from 1.10265 to 1.10265
Heightened Def Con from 1.10294 to 1.10294
Heightened Def Con from 1.10309 to 1.10309
Heightened Def Con from 1.10338 to 1.10338
Heightened Def Con from 1.1034 to 1.1034
Heightened Def Con from 1.10371 to 1.10371
Heightened Def Con from 1.10387 to 1.10387
Heightened Def Con from 1.10402 to 1.10402
Heightened Def Con from 1.1041 to 1.1041
Heightened Def Con from 1.10436 to 1.10436
Heightened Def Con from 1.10446 to 1.10446
Heightened Def Con from 1.10498 to 1.10498
Heightened Def Con from 1.10503 to 1.10503
Heightened Def Con from 1.10516 to 1.10516
Heightened Def Con from 1.10534 to 1.10534
Heightened Def Con from 1.10537 to 1.10537
Heightened Def Con from 1.1057 to 1.1057
Heightened Def Con from 1.10594 to 1.10594
Heightened Def Con from 1.10607 to 1.10607
Heightened Def Con from 1.10614 to 1.10614
Heightened Def Con from 1.10619 to 1.10619
Heightened Def Con from 1.10632 to 1.10632
Heightened Def Con from 1.10645 to 1.10645
Heightened Def Con from 1.1065 to 1.1065
Heightened Def Con from 1.10653 to 1.10653
Heightened Def Con from 1.10658 to 1.10658
Heightened Def Con from 1.10681 to 1.10681
Heightened Def Con from 1.10697 to 1.10697
Heightened Def Con from 1.107 to 1.107
Heightened Def Con from 1.10712 to 1.10712
Heightened Def Con from 1.10728 to 1.10728
Heightened Def Con from 1.10733 to 1.10733
Heightened Def Con from 1.10777 to 1.10777
Heightened Def Con from 1.10782 to 1.10782
Heightened Def Con from 1.10813 to 1.10813
Heightened Def Con from 1.10821 to 1.10821
Heightened Def Con from 1.10844 to 1.10844
Heightened Def Con from 1.10849 to 1.10849
Heightened Def Con from 1.10883 to 1.10883
Heightened Def Con from 1.10896 to 1.10896
Heightened Def Con from 1.10914 to 1.10914
Heightened Def Con from 1.1096 to 1.1096
Heightened Def Con from 1.10984 to 1.10984
Heightened Def Con from 1.10986 to 1.10986
Heightened Def Con from 1.10999 to 1.10999
Heightened Def Con from 1.11025 to 1.11025
Heightened Def Con from 1.11028 to 1.11028
Heightened Def Con from 1.1103 to 1.1103
Heightened Def Con from 1.11066 to 1.11066
Heightened Def Con from 1.11079 to 1.11079
Heightened Def Con from 1.11095 to 1.11095
Heightened Def Con from 1.11113 to 1.11113
Heightened Def Con from 1.11154 to 1.11154
Heightened Def Con from 1.11157 to 1.11157
Heightened Def Con from 1.11162 to 1.11162
Heightened Def Con from 1.11167 to 1.11167
Heightened Def Con from 1.11188 to 1.11188
Heightened Def Con from 1.1119 to 1.1119
Heightened Def Con from 1.11193 to 1.11193
Heightened Def Con from 1.11198 to 1.11198
Heightened Def Con from 1.11216 to 1.11216
Heightened Def Con from 1.11224 to 1.11224
Heightened Def Con from 1.11229 to 1.11229
Heightened Def Con from 1.11232 to 1.11232
Heightened Def Con from 1.1126 to 1.1126
Heightened Def Con from 1.11278 to 1.11278
Heightened Def Con from 1.11284 to 1.11284
Heightened Def Con from 1.11333 to 1.11333
Heightened Def Con from 1.11335 to 1.11335
Heightened Def Con from 1.11345 to 1.11345
Heightened Def Con from 1.11364 to 1.11364
Heightened Def Con from 1.11374 to 1.11374
Heightened Def Con from 1.11379 to 1.11379
Heightened Def Con from 1.11384 to 1.11384
Heightened Def Con from 1.11392 to 1.11392
Heightened Def Con from 1.11402 to 1.11402
Heightened Def Con from 1.11413 to 1.11413
Heightened Def Con from 1.11423 to 1.11423
Heightened Def Con from 1.11431 to 1.11431
Heightened Def Con from 1.11462 to 1.11462
Heightened Def Con from 1.11485 to 1.11485
Heightened Def Con from 1.11503 to 1.11503
Heightened Def Con from 1.11508 to 1.11508
Heightened Def Con from 1.11516 to 1.11516
Heightened Def Con from 1.11537 to 1.11537
Heightened Def Con from 1.11539 to 1.11539
Heightened Def Con from 1.11568 to 1.11568
Heightened Def Con from 1.11576 to 1.11576
Heightened Def Con from 1.11581 to 1.11581
Heightened Def Con from 1.11589 to 1.11589
Heightened Def Con from 1.11604 to 1.11604
Heightened Def Con from 1.11614 to 1.11614
Heightened Def Con from 1.1163 to 1.1163
Heightened Def Con from 1.11632 to 1.11632
Heightened Def Con from 1.11651 to 1.11651
Heightened Def Con from 1.11658 to 1.11658
Heightened Def Con from 1.11694 to 1.11694
Heightened Def Con from 1.11717 to 1.11717
Heightened Def Con from 1.1172 to 1.1172
Heightened Def Con from 1.11731 to 1.11731
Heightened Def Con from 1.11754 to 1.11754
Heightened Def Con from 1.11759 to 1.11759
Heightened Def Con from 1.11769 to 1.11769
Heightened Def Con from 1.11782 to 1.11782
Heightened Def Con from 1.1179 to 1.1179
Heightened Def Con from 1.1181 to 1.1181
Heightened Def Con from 1.11816 to 1.11816
Heightened Def Con from 1.11826 to 1.11826
Heightened Def Con from 1.11829 to 1.11829
Heightened Def Con from 1.11837 to 1.11837
Heightened Def Con from 1.1186 to 1.1186
Heightened Def Con from 1.11909 to 1.11909
Heightened Def Con from 1.11927 to 1.11927
Heightened Def Con from 1.11935 to 1.11935
Heightened Def Con from 1.1194 to 1.1194
Heightened Def Con from 1.11943 to 1.11943
Heightened Def Con from 1.11948 to 1.11948
Heightened Def Con from 1.11971 to 1.11971
Heightened Def Con from 1.11992 to 1.11992
Heightened Def Con from 1.11994 to 1.11994
Heightened Def Con from 1.1203 to 1.1203
Heightened Def Con from 1.12036 to 1.12036
Heightened Def Con from 1.12038 to 1.12038
Heightened Def Con from 1.12043 to 1.12043
Heightened Def Con from 1.12077 to 1.12077
Heightened Def Con from 1.12105 to 1.12105
Heightened Def Con from 1.12108 to 1.12108
Heightened Def Con from 1.12111 to 1.12111
Heightened Def Con from 1.12147 to 1.12147
Heightened Def Con from 1.12149 to 1.12149
Heightened Def Con from 1.12152 to 1.12152
Heightened Def Con from 1.12167 to 1.12167
Heightened Def Con from 1.12206 to 1.12206
Heightened Def Con from 1.12219 to 1.12219
Heightened Def Con from 1.12227 to 1.12227
Heightened Def Con from 1.12232 to 1.12232
Heightened Def Con from 1.1225 to 1.1225
Heightened Def Con from 1.12263 to 1.12263
Heightened Def Con from 1.12273 to 1.12273
Heightened Def Con from 1.12279 to 1.12279
Heightened Def Con from 1.12297 to 1.12297
Heightened Def Con from 1.12304 to 1.12304
Heightened Def Con from 1.12307 to 1.12307
Heightened Def Con from 1.12343 to 1.12343
Heightened Def Con from 1.12351 to 1.12351
Heightened Def Con from 1.12369 to 1.12369
Heightened Def Con from 1.12416 to 1.12416
Heightened Def Con from 1.12431 to 1.12431
Heightened Def Con from 1.12434 to 1.12434
Heightened Def Con from 1.12465 to 1.12465
Heightened Def Con from 1.1248 to 1.1248
Heightened Def Con from 1.1249 to 1.1249
Heightened Def Con from 1.12498 to 1.12498
Heightened Def Con from 1.12501 to 1.12501
Heightened Def Con from 1.12516 to 1.12516
Heightened Def Con from 1.12524 to 1.12524
Heightened Def Con from 1.12526 to 1.12526
Heightened Def Con from 1.12529 to 1.12529
Heightened Def Con from 1.12534 to 1.12534
Heightened Def Con from 1.12545 to 1.12545
Heightened Def Con from 1.1255 to 1.1255
Heightened Def Con from 1.12555 to 1.12555
Heightened Def Con from 1.12573 to 1.12573
Heightened Def Con from 1.12578 to 1.12578
Heightened Def Con from 1.12604 to 1.12604
Heightened Def Con from 1.12612 to 1.12612
Heightened Def Con from 1.12617 to 1.12617
Heightened Def Con from 1.12648 to 1.12648
Heightened Def Con from 1.12666 to 1.12666
Heightened Def Con from 1.12668 to 1.12668
Heightened Def Con from 1.12669 to 1.12669
Heightened Def Con from 1.12692 to 1.12692
Heightened Def Con from 1.12705 to 1.12705
Heightened Def Con from 1.1271 to 1.1271
Heightened Def Con from 1.12726 to 1.12726
Heightened Def Con from 1.12733 to 1.12733
Heightened Def Con from 1.12759 to 1.12759
Heightened Def Con from 1.1277 to 1.1277
Heightened Def Con from 1.12803 to 1.12803

Date: Fri Nov 10 18:57:06 2017
Total elapsed time: 1865.178 seconds.

tnom = 27
temp = 27
method = modified trap
totiter = 67085079
traniter = 67085079
tranpoints = 18746142
accept = 13818249
rejected = 4933604
matrix size = 140
fillins = 91
solver = Normal
Thread vector: 15.1/12.4[2] 7.3/5.9[2] 4.1/2.6[2] 1.2/2.1[1]  2592/500
Matrix Compiler1: 12.50 KB object code size  5.4/4.1/[1.3]
Matrix Compiler2: 12.75 KB object code size  2.8/3.6/[1.0]

