Circuit: * H:\MITCHELL STUFF 2\Work\Berkeley\Berkeley_AIAA\Code_F2017\Circuits\Simulation\MotorController.asc

WARNING: Less than two connections to node V_36V.  This node is used by V36V.
WARNING: Less than two connections to node V_1V.  This node is used by V1V.
Instance "m:u7:6": Length shorter than recommended for a level 2 MOSFET.
Instance "m:u7:5": Length shorter than recommended for a level 2 MOSFET.
Instance "m:u7:4": Length shorter than recommended for a level 2 MOSFET.
Instance "m:u7:3": Length shorter than recommended for a level 2 MOSFET.
Instance "m:u7:2": Length shorter than recommended for a level 2 MOSFET.
Instance "m:u7:1": Length shorter than recommended for a level 2 MOSFET.
Direct Newton iteration for .op point succeeded.
Ignoring empty pin current: Ix(u4:1:103)
Ignoring empty pin current: Ix(u4:2:103)
Ignoring empty pin current: Ix(u4:1:1:201)
Ignoring empty pin current: Ix(u4:1:2:603)
Ignoring empty pin current: Ix(u4:1:3:301)
Ignoring empty pin current: Ix(u4:2:1:201)
Ignoring empty pin current: Ix(u4:2:2:603)
Ignoring empty pin current: Ix(u4:2:3:301)
Ignoring empty pin current: Ix(u4:1:103)
Ignoring empty pin current: Ix(u4:2:103)
Ignoring empty pin current: Ix(u4:1:1:201)
Ignoring empty pin current: Ix(u4:1:2:603)
Ignoring empty pin current: Ix(u4:1:3:301)
Ignoring empty pin current: Ix(u4:2:1:201)
Ignoring empty pin current: Ix(u4:2:2:603)
Ignoring empty pin current: Ix(u4:2:3:301)

Date: Thu Sep 21 13:43:51 2017
Total elapsed time: 12.185 seconds.

tnom = 27
temp = 27
method = modified trap
totiter = 137420
traniter = 137381
tranpoints = 42820
accept = 32653
rejected = 10167
matrix size = 236
fillins = 162
solver = Normal
Thread vector: 56.0/34.3[8] 20.0/14.6[2] 15.9/8.2[8] 2.1/4.3[1]  2592/500
Matrix Compiler1: 20.04 KB object code size  15.2/10.7/[5.7]
Matrix Compiler2: off  [7.3]/9.1/8.4

