Circuit: * H:\MITCHELL STUFF 2\Work\Berkeley\Berkeley_AIAA\Code_F2017\Circuits\Simulation\MotorController.asc

Per .tran options, skipping operating point for transient analysis.
.step tp=0.0001
.step tp=0.0002
.step tp=0.0003
