Circuit: * H:\MITCHELL STUFF 2\Work\Berkeley\Berkeley_AIAA\Code_F2017\Circuits\Simulation\MotorController.asc

WARNING: Specified period is not longer than the sum of Trise, Tfall, and Ton for vfpga_fspeed.  Increasing period to 0.001002
WARNING: Less than two connections to node V_GAIN1.  This node is used by VG.
Per .tran options, skipping operating point for transient analysis.
Changing Tseed to 1e-008
Changing Tseed to 1e-010
Heightened Def Con from 0.00239639 to 0.00239639
Heightened Def Con from 0.00364398 to 0.00364399
Heightened Def Con from 0.00372037 to 0.00372037
Heightened Def Con from 0.00545171 to 0.00545171
Heightened Def Con from 0.00593547 to 0.00593547
Heightened Def Con from 0.00927086 to 0.00927086
Heightened Def Con from 0.00947105 to 0.00947105
Heightened Def Con from 0.0107476 to 0.0107476
Heightened Def Con from 0.0120716 to 0.0120716
Heightened Def Con from 0.013752 to 0.013752
Heightened Def Con from 0.014414 to 0.014414
Heightened Def Con from 0.0156361 to 0.0156361
Heightened Def Con from 0.016349 to 0.016349
Heightened Def Con from 0.0175966 to 0.0175966
Heightened Def Con from 0.0180295 to 0.0180295
Heightened Def Con from 0.0186915 to 0.0186915
Heightened Def Con from 0.0188951 to 0.0188951
Heightened Def Con from 0.0192007 to 0.0192007
Heightened Def Con from 0.0194298 to 0.0194298
Heightened Def Con from 0.0201173 to 0.0201173
Heightened Def Con from 0.021976 to 0.021976
Heightened Def Con from 0.0224852 to 0.0224852
Heightened Def Con from 0.0226125 to 0.0226125
Heightened Def Con from 0.0230708 to 0.0230708
Heightened Def Con from 0.023249 to 0.023249
Heightened Def Con from 0.0251841 to 0.0251841
Heightened Def Con from 0.025566 to 0.025566
Heightened Def Con from 0.0268899 to 0.0268899
Heightened Def Con from 0.0279593 to 0.0279593
Heightened Def Con from 0.0283412 to 0.0283412
Heightened Def Con from 0.0286468 to 0.0286468
Heightened Def Con from 0.0293562 to 0.0293562
Heightened Def Con from 0.0302253 to 0.0302253
Heightened Def Con from 0.0306073 to 0.0306073
Heightened Def Con from 0.03076 to 0.03076
Heightened Def Con from 0.0322622 to 0.0322622
Heightened Def Con from 0.0326441 to 0.0326441
Heightened Def Con from 0.0327205 to 0.0327205
Heightened Def Con from 0.0341209 to 0.0341209
Heightened Def Con from 0.0345028 to 0.0345028
Heightened Def Con from 0.0360305 to 0.0360305
Heightened Def Con from 0.0364378 to 0.0364378
Heightened Def Con from 0.0365651 to 0.0365651
Heightened Def Con from 0.036947 to 0.036947
Heightened Def Con from 0.0371507 to 0.0371507
Heightened Def Con from 0.0375326 to 0.0375326
Heightened Def Con from 0.0379146 to 0.0379146
Heightened Def Con from 0.0382166 to 0.0382166
Heightened Def Con from 0.0382201 to 0.0382201
Heightened Def Con from 0.0392131 to 0.0392131
Heightened Def Con from 0.0400787 to 0.0400787
Heightened Def Con from 0.0409953 to 0.0409953
Heightened Def Con from 0.0411736 to 0.0411736
Heightened Def Con from 0.0413773 to 0.0413773
Heightened Def Con from 0.0423702 to 0.0423702
Heightened Def Con from 0.0427012 to 0.0427012
Heightened Def Con from 0.0427522 to 0.0427522
Heightened Def Con from 0.0447126 to 0.0447126
Heightened Def Con from 0.0451709 to 0.0451709
Heightened Def Con from 0.0451964 to 0.0451964
Heightened Def Con from 0.0452219 to 0.0452219
Heightened Def Con from 0.0457056 to 0.0457056
Heightened Def Con from 0.0459348 to 0.0459348
Heightened Def Con from 0.0469532 to 0.0469532
Heightened Def Con from 0.0477425 to 0.0477425
Heightened Def Con from 0.0480735 to 0.0480735
Heightened Def Con from 0.0483281 to 0.0483281
Heightened Def Con from 0.0483536 to 0.0483536
Heightened Def Con from 0.0486082 to 0.0486082
Heightened Def Con from 0.04871 to 0.04871
Heightened Def Con from 0.0492956 to 0.0492956
Heightened Def Con from 0.0500849 to 0.0500849
Heightened Def Con from 0.0502632 to 0.0502632
Heightened Def Con from 0.0507978 to 0.0507978
Heightened Def Con from 0.0508742 to 0.0508742
Heightened Def Con from 0.0510779 to 0.0510779
Heightened Def Con from 0.0514089 to 0.0514089
Heightened Def Con from 0.0515362 to 0.0515362
Heightened Def Con from 0.051689 to 0.051689
Heightened Def Con from 0.0520199 to 0.0520199
Heightened Def Con from 0.0523764 to 0.0523764
Heightened Def Con from 0.0525801 to 0.0525801
Heightened Def Con from 0.0527583 to 0.0527583
Heightened Def Con from 0.0531657 to 0.0531657
Heightened Def Con from 0.0534712 to 0.0534712
Heightened Def Con from 0.053955 to 0.053955
Heightened Def Con from 0.0542605 to 0.0542605
Heightened Def Con from 0.0544642 to 0.0544642
Heightened Def Con from 0.054566 to 0.054566
Heightened Def Con from 0.0546679 to 0.0546679
Heightened Def Con from 0.0546933 to 0.0546934
Heightened Def Con from 0.0552535 to 0.0552535
Heightened Def Con from 0.0552789 to 0.055279
Heightened Def Con from 0.0553044 to 0.0553044
Heightened Def Con from 0.0554572 to 0.0554572
Heightened Def Con from 0.0556099 to 0.0556099
Heightened Def Con from 0.0557118 to 0.0557118
Heightened Def Con from 0.0557372 to 0.0557372
Heightened Def Con from 0.0558391 to 0.0558391
Heightened Def Con from 0.0559409 to 0.0559409
Heightened Def Con from 0.0559919 to 0.0559919
Heightened Def Con from 0.0560428 to 0.0560428
Heightened Def Con from 0.0561955 to 0.0561955
Heightened Def Con from 0.0562719 to 0.0562719
Heightened Def Con from 0.0563992 to 0.0563992
Heightened Def Con from 0.0565265 to 0.0565265
Heightened Def Con from 0.0568066 to 0.0568066
Heightened Def Con from 0.0572904 to 0.0572904
Heightened Def Con from 0.0574177 to 0.0574177
Heightened Def Con from 0.0575195 to 0.0575195
Heightened Def Con from 0.0576977 to 0.0576977
Heightened Def Con from 0.0579014 to 0.0579014
Heightened Def Con from 0.0580797 to 0.0580797
Heightened Def Con from 0.0585634 to 0.0585634
Heightened Def Con from 0.0585889 to 0.0585889
Heightened Def Con from 0.0593018 to 0.0593018
Heightened Def Con from 0.0596328 to 0.0596328
Heightened Def Con from 0.059811 to 0.059811
Heightened Def Con from 0.0599638 to 0.0599638
Heightened Def Con from 0.0603966 to 0.0603966
Heightened Def Con from 0.0608804 to 0.0608804
Heightened Def Con from 0.0618479 to 0.0618479
Heightened Def Con from 0.062077 to 0.062077
Heightened Def Con from 0.062099 to 0.062099
Heightened Def Con from 0.062128 to 0.062128
Heightened Def Con from 0.0623062 to 0.0623062
Heightened Def Con from 0.0625099 to 0.0625099
Heightened Def Con from 0.0626627 to 0.0626627
Heightened Def Con from 0.0627645 to 0.0627645
Heightened Def Con from 0.0631719 to 0.0631719
Heightened Def Con from 0.0633246 to 0.0633246
Heightened Def Con from 0.063401 to 0.063401
Heightened Def Con from 0.0634265 to 0.0634265
Heightened Def Con from 0.063732 to 0.063732
Heightened Def Con from 0.0637829 to 0.0637829
Heightened Def Con from 0.0638813 to 0.0638813
Heightened Def Con from 0.0641649 to 0.0641649
Heightened Def Con from 0.064394 to 0.064394
Heightened Def Con from 0.0645213 to 0.0645213
Heightened Def Con from 0.0646486 to 0.0646486
Heightened Def Con from 0.0659217 to 0.0659217
Heightened Def Con from 0.0662272 to 0.0662272
Heightened Def Con from 0.0664054 to 0.0664054
Heightened Def Con from 0.0665836 to 0.0665836
Heightened Def Con from 0.0667109 to 0.0667109
Heightened Def Con from 0.0668892 to 0.0668892
Heightened Def Con from 0.0670165 to 0.0670165
Heightened Def Con from 0.0672456 to 0.0672456
Heightened Def Con from 0.0675512 to 0.0675512
Heightened Def Con from 0.0676275 to 0.0676275
Heightened Def Con from 0.0677548 to 0.0677548
Heightened Def Con from 0.0681877 to 0.0681877
Heightened Def Con from 0.0682386 to 0.0682386
Heightened Def Con from 0.0683914 to 0.0683914
Heightened Def Con from 0.0684423 to 0.0684423
Heightened Def Con from 0.0684932 to 0.0684932
Heightened Def Con from 0.0690788 to 0.0690788
Heightened Def Con from 0.0691806 to 0.0691807
Heightened Def Con from 0.0692061 to 0.0692061
Heightened Def Con from 0.0692535 to 0.0692535
Heightened Def Con from 0.069308 to 0.069308
Heightened Def Con from 0.0693334 to 0.0693334
Heightened Def Con from 0.0693808 to 0.0693808
Heightened Def Con from 0.0693843 to 0.0693843
Heightened Def Con from 0.0695371 to 0.0695371
Heightened Def Con from 0.0703773 to 0.0703773
Heightened Def Con from 0.0705301 to 0.0705301
Heightened Def Con from 0.0706829 to 0.0706829
Heightened Def Con from 0.0710139 to 0.0710139
Heightened Def Con from 0.0710358 to 0.0710358
Heightened Def Con from 0.0713449 to 0.0713449
Heightened Def Con from 0.0717013 to 0.0717013
Heightened Def Con from 0.0717268 to 0.0717268
Heightened Def Con from 0.0718761 to 0.0718761
Heightened Def Con from 0.0719559 to 0.0719559
Heightened Def Con from 0.0721851 to 0.0721851
Heightened Def Con from 0.072236 to 0.072236
Heightened Def Con from 0.0723124 to 0.0723124
Heightened Def Con from 0.0723633 to 0.0723633
Heightened Def Con from 0.0727198 to 0.0727198
Heightened Def Con from 0.0728471 to 0.0728471
Heightened Def Con from 0.0728725 to 0.0728725
Heightened Def Con from 0.07292 to 0.07292
Heightened Def Con from 0.0731271 to 0.0731271
Heightened Def Con from 0.0732 to 0.0732
Heightened Def Con from 0.0732545 to 0.0732545
Heightened Def Con from 0.0737637 to 0.0737637
Heightened Def Con from 0.0740947 to 0.0740947
Heightened Def Con from 0.074553 to 0.074553
Heightened Def Con from 0.0746803 to 0.0746803
Heightened Def Con from 0.0747567 to 0.0747567
Heightened Def Con from 0.0757497 to 0.0757497
Heightened Def Con from 0.075826 to 0.075826
Heightened Def Con from 0.0759244 to 0.0759244
Heightened Def Con from 0.0763607 to 0.0763607
Heightened Def Con from 0.0765135 to 0.0765135
Heightened Def Con from 0.0765644 to 0.0765644
Heightened Def Con from 0.0767936 to 0.0767936
Heightened Def Con from 0.0770227 to 0.0770227
Heightened Def Con from 0.0770991 to 0.0770991
Heightened Def Con from 0.07715 to 0.07715
Heightened Def Con from 0.0774556 to 0.0774556
Heightened Def Con from 0.0777102 to 0.0777102
Heightened Def Con from 0.0780412 to 0.0780412
Heightened Def Con from 0.0780666 to 0.0780666
Heightened Def Con from 0.0782449 to 0.0782449
Heightened Def Con from 0.0784231 to 0.0784231
Heightened Def Con from 0.0786268 to 0.0786268
Heightened Def Con from 0.0787032 to 0.0787032
Heightened Def Con from 0.0787286 to 0.0787286
Heightened Def Con from 0.0788305 to 0.0788305
Heightened Def Con from 0.0790342 to 0.0790342
Heightened Def Con from 0.0793142 to 0.0793142
Heightened Def Con from 0.0793651 to 0.0793652
Heightened Def Con from 0.0800236 to 0.0800236
Heightened Def Con from 0.0801544 to 0.0801544
Heightened Def Con from 0.0801799 to 0.0801799
Heightened Def Con from 0.0803072 to 0.0803072
Heightened Def Con from 0.0803327 to 0.0803327
Heightened Def Con from 0.0803581 to 0.0803581
Heightened Def Con from 0.0809437 to 0.0809437
Heightened Def Con from 0.081122 to 0.081122
Heightened Def Con from 0.0812493 to 0.0812493
Heightened Def Con from 0.0813002 to 0.0813002
Heightened Def Con from 0.0813511 to 0.0813511
Heightened Def Con from 0.081402 to 0.081402
Heightened Def Con from 0.0814784 to 0.0814784
Heightened Def Con from 0.0815039 to 0.0815039
Heightened Def Con from 0.0815803 to 0.0815803
Heightened Def Con from 0.0816566 to 0.0816566
Heightened Def Con from 0.0819367 to 0.0819367
Heightened Def Con from 0.0821913 to 0.0821913
Heightened Def Con from 0.0824205 to 0.0824205
Heightened Def Con from 0.0825732 to 0.0825732
Heightened Def Con from 0.0829262 to 0.0829262
Heightened Def Con from 0.0831843 to 0.0831843
Heightened Def Con from 0.0834389 to 0.0834389
Heightened Def Con from 0.0838717 to 0.0838718
Heightened Def Con from 0.0841518 to 0.0841518
Heightened Def Con from 0.084381 to 0.084381
Heightened Def Con from 0.0845847 to 0.0845847
Heightened Def Con from 0.0846356 to 0.0846356
Heightened Def Con from 0.084661 to 0.084661
Heightened Def Con from 0.0846865 to 0.0846865
Heightened Def Con from 0.0847883 to 0.0847883
Heightened Def Con from 0.0851193 to 0.0851193
Heightened Def Con from 0.0851448 to 0.0851448
Heightened Def Con from 0.0852976 to 0.0852976
Heightened Def Con from 0.085323 to 0.085323
Heightened Def Con from 0.0853485 to 0.0853485
Heightened Def Con from 0.0853739 to 0.085374
Heightened Def Con from 0.0856286 to 0.0856286
Heightened Def Con from 0.0858577 to 0.0858577
Heightened Def Con from 0.0859341 to 0.0859341
Heightened Def Con from 0.0859595 to 0.0859596
Heightened Def Con from 0.0861378 to 0.0861378
Heightened Def Con from 0.0861887 to 0.0861887
Heightened Def Con from 0.0862142 to 0.0862142
Heightened Def Con from 0.0863415 to 0.0863415
Heightened Def Con from 0.0863924 to 0.0863924
Heightened Def Con from 0.086647 to 0.086647
Heightened Def Con from 0.0871053 to 0.0871053
Heightened Def Con from 0.0872071 to 0.0872071
Heightened Def Con from 0.0873599 to 0.0873599
Heightened Def Con from 0.0874872 to 0.0874872
Heightened Def Con from 0.0875127 to 0.0875127
Heightened Def Con from 0.0875381 to 0.0875381
Heightened Def Con from 0.0877164 to 0.0877164
Heightened Def Con from 0.0877418 to 0.0877418
Heightened Def Con from 0.0879455 to 0.0879455
Heightened Def Con from 0.0880728 to 0.0880728
Heightened Def Con from 0.0883529 to 0.0883529
Heightened Def Con from 0.0884293 to 0.0884293
Heightened Def Con from 0.0885311 to 0.0885311
Heightened Def Con from 0.0886075 to 0.0886075
Heightened Def Con from 0.0887093 to 0.0887093
Heightened Def Con from 0.0889385 to 0.0889385
Heightened Def Con from 0.0891167 to 0.0891167
Heightened Def Con from 0.0894986 to 0.0894986
Heightened Def Con from 0.0896005 to 0.0896005
Heightened Def Con from 0.0897278 to 0.0897278
Heightened Def Con from 0.0898296 to 0.0898296
Heightened Def Con from 0.0900078 to 0.0900078
Heightened Def Con from 0.0900298 to 0.0900298
Heightened Def Con from 0.0901352 to 0.0901352
Heightened Def Con from 0.0902115 to 0.0902115
Heightened Def Con from 0.0902625 to 0.0902625
Heightened Def Con from 0.0906189 to 0.0906189
Heightened Def Con from 0.0906698 to 0.0906698
Heightened Def Con from 0.0907207 to 0.0907207
Heightened Def Con from 0.0910008 to 0.0910008
Heightened Def Con from 0.09123 to 0.09123
Heightened Def Con from 0.0914591 to 0.0914591
Heightened Def Con from 0.0915355 to 0.0915355
Heightened Def Con from 0.0919938 to 0.0919938
Heightened Def Con from 0.0922994 to 0.0922994
Heightened Def Con from 0.0924012 to 0.0924012
Heightened Def Con from 0.0927067 to 0.0927067
Heightened Def Con from 0.0930886 to 0.0930887
Heightened Def Con from 0.0934196 to 0.0934196
Heightened Def Con from 0.0937761 to 0.0937761
Heightened Def Con from 0.0941835 to 0.0941835
Heightened Def Con from 0.0942344 to 0.0942344
Heightened Def Con from 0.0944381 to 0.0944381
Heightened Def Con from 0.0945654 to 0.0945654
Heightened Def Con from 0.0948455 to 0.0948455
Heightened Def Con from 0.0948709 to 0.0948709
Heightened Def Con from 0.0949728 to 0.0949728
Heightened Def Con from 0.0949947 to 0.0949947
Heightened Def Con from 0.0949982 to 0.0949982
Heightened Def Con from 0.0950202 to 0.0950202
Heightened Def Con from 0.095151 to 0.095151
Heightened Def Con from 0.0952274 to 0.0952274
Heightened Def Con from 0.0957111 to 0.0957111
Heightened Def Con from 0.0957331 to 0.0957331
Heightened Def Con from 0.0959403 to 0.0959403
Heightened Def Con from 0.0959912 to 0.0959912
Heightened Def Con from 0.096144 to 0.096144
Heightened Def Con from 0.0963731 to 0.0963731
Heightened Def Con from 0.0966786 to 0.0966786
Heightened Def Con from 0.096755 to 0.096755
Heightened Def Con from 0.0969842 to 0.0969842
Heightened Def Con from 0.0972388 to 0.0972388
Heightened Def Con from 0.0973406 to 0.0973406
Heightened Def Con from 0.0979262 to 0.0979262
Heightened Def Con from 0.0981808 to 0.0981808
Heightened Def Con from 0.0982572 to 0.0982572
Heightened Def Con from 0.09841 to 0.09841
Heightened Def Con from 0.0985118 to 0.0985118
Heightened Def Con from 0.0985882 to 0.0985882
Heightened Def Con from 0.0987664 to 0.0987664
Heightened Def Con from 0.0989192 to 0.0989192
Heightened Def Con from 0.099072 to 0.099072
Heightened Def Con from 0.099734 to 0.099734
Heightened Def Con from 0.100065 to 0.100065
Heightened Def Con from 0.1006 to 0.1006
Heightened Def Con from 0.100727 to 0.100727
Heightened Def Con from 0.10088 to 0.10088
Heightened Def Con from 0.102378 to 0.102378
Heightened Def Con from 0.102407 to 0.102407
Heightened Def Con from 0.102455 to 0.102455
Heightened Def Con from 0.102662 to 0.102662
Heightened Def Con from 0.103248 to 0.103248
Heightened Def Con from 0.103273 to 0.103273
Heightened Def Con from 0.103298 to 0.103298
Heightened Def Con from 0.103579 to 0.103579
Heightened Def Con from 0.103935 to 0.103935
Heightened Def Con from 0.104342 to 0.104342
Heightened Def Con from 0.10447 to 0.10447
Heightened Def Con from 0.104852 to 0.104852
Heightened Def Con from 0.104877 to 0.104877
Heightened Def Con from 0.104979 to 0.104979
Heightened Def Con from 0.105259 to 0.105259
Heightened Def Con from 0.105717 to 0.105717
Heightened Def Con from 0.105819 to 0.105819
Heightened Def Con from 0.105972 to 0.105972
Heightened Def Con from 0.106074 to 0.106074
Heightened Def Con from 0.106176 to 0.106176
Heightened Def Con from 0.106558 to 0.106558
Heightened Def Con from 0.106583 to 0.106583
Heightened Def Con from 0.10671 to 0.10671
Heightened Def Con from 0.106736 to 0.106736
Heightened Def Con from 0.106914 to 0.106914
Heightened Def Con from 0.107067 to 0.107067
Heightened Def Con from 0.107092 to 0.107092
Heightened Def Con from 0.107372 to 0.107372
Heightened Def Con from 0.107601 to 0.107601
Heightened Def Con from 0.107725 to 0.107725
Heightened Def Con from 0.108187 to 0.108187
Heightened Def Con from 0.108311 to 0.108311
Heightened Def Con from 0.108493 to 0.108493
Heightened Def Con from 0.108671 to 0.108671
Heightened Def Con from 0.108773 to 0.108773
Heightened Def Con from 0.108824 to 0.108824
Heightened Def Con from 0.109129 to 0.109129
Heightened Def Con from 0.109256 to 0.109256
Heightened Def Con from 0.109409 to 0.109409
Heightened Def Con from 0.109536 to 0.109537
Heightened Def Con from 0.109791 to 0.109791
Heightened Def Con from 0.109842 to 0.109842
Heightened Def Con from 0.110173 to 0.110173
Heightened Def Con from 0.110199 to 0.110199
Heightened Def Con from 0.110326 to 0.110326
Heightened Def Con from 0.110402 to 0.110402
Heightened Def Con from 0.110504 to 0.110504
Heightened Def Con from 0.110555 to 0.110555
Heightened Def Con from 0.110733 to 0.110733
Heightened Def Con from 0.111112 to 0.111112
Heightened Def Con from 0.111115 to 0.111115
Heightened Def Con from 0.111319 to 0.111319
Heightened Def Con from 0.11137 to 0.11137
Heightened Def Con from 0.112057 to 0.112057
Heightened Def Con from 0.112541 to 0.112541
Heightened Def Con from 0.112719 to 0.112719
Heightened Def Con from 0.112974 to 0.112974
Heightened Def Con from 0.113203 to 0.113203
Heightened Def Con from 0.113305 to 0.113305
Heightened Def Con from 0.113458 to 0.113458
Heightened Def Con from 0.113534 to 0.113534
Heightened Def Con from 0.113636 to 0.113636
Heightened Def Con from 0.113734 to 0.113734
Heightened Def Con from 0.113738 to 0.113738
Heightened Def Con from 0.113839 to 0.113839
Heightened Def Con from 0.114145 to 0.114145
Heightened Def Con from 0.114349 to 0.114349
Heightened Def Con from 0.1144 to 0.1144
Heightened Def Con from 0.114756 to 0.114756
Heightened Def Con from 0.114883 to 0.114883
Heightened Def Con from 0.114909 to 0.114909
Heightened Def Con from 0.114934 to 0.114934
Heightened Def Con from 0.115036 to 0.115036
Heightened Def Con from 0.11552 to 0.11552
Heightened Def Con from 0.115673 to 0.115673
Heightened Def Con from 0.116335 to 0.116335
Heightened Def Con from 0.116436 to 0.116436
Heightened Def Con from 0.116538 to 0.116538
Heightened Def Con from 0.116615 to 0.116615
Heightened Def Con from 0.116666 to 0.116666
Heightened Def Con from 0.116793 to 0.116793
Heightened Def Con from 0.116997 to 0.116997
Heightened Def Con from 0.117531 to 0.117531
Heightened Def Con from 0.117557 to 0.117557
Heightened Def Con from 0.117862 to 0.117862
Heightened Def Con from 0.117888 to 0.117888
Heightened Def Con from 0.118091 to 0.118091
Heightened Def Con from 0.118117 to 0.118117
Heightened Def Con from 0.118524 to 0.118524
Heightened Def Con from 0.11855 to 0.11855
Heightened Def Con from 0.118677 to 0.118677
Heightened Def Con from 0.118699 to 0.118699
Heightened Def Con from 0.118779 to 0.118779
Heightened Def Con from 0.11939 to 0.11939
Heightened Def Con from 0.119517 to 0.119517
Heightened Def Con from 0.11995 to 0.11995
Heightened Def Con from 0.120205 to 0.120205
Heightened Def Con from 0.120307 to 0.120307
Heightened Def Con from 0.120383 to 0.120383
Heightened Def Con from 0.120561 to 0.120561
Heightened Def Con from 0.120969 to 0.120969
Heightened Def Con from 0.121198 to 0.121198
Heightened Def Con from 0.12135 to 0.12135
Heightened Def Con from 0.121427 to 0.121427
Heightened Def Con from 0.121783 to 0.121783
Heightened Def Con from 0.121809 to 0.121809
Heightened Def Con from 0.12186 to 0.12186
Heightened Def Con from 0.122165 to 0.122165
Heightened Def Con from 0.122853 to 0.122853
Heightened Def Con from 0.122904 to 0.122904
Heightened Def Con from 0.123107 to 0.123107
Heightened Def Con from 0.123235 to 0.123235
Heightened Def Con from 0.123922 to 0.123922
Heightened Def Con from 0.124177 to 0.124177
Heightened Def Con from 0.124991 to 0.124991
Heightened Def Con from 0.125017 to 0.125017
Heightened Def Con from 0.125399 to 0.125399
Heightened Def Con from 0.125552 to 0.125552
Heightened Def Con from 0.125602 to 0.125602
Heightened Def Con from 0.125704 to 0.125704
Heightened Def Con from 0.12601 to 0.12601
Heightened Def Con from 0.126159 to 0.126159
Heightened Def Con from 0.126366 to 0.126366
Heightened Def Con from 0.127105 to 0.127105
Heightened Def Con from 0.12713 to 0.12713
Heightened Def Con from 0.127283 to 0.127283
Heightened Def Con from 0.127308 to 0.127308
Heightened Def Con from 0.127461 to 0.127461
Heightened Def Con from 0.127487 to 0.127487
Heightened Def Con from 0.127716 to 0.127716
Heightened Def Con from 0.127767 to 0.127767
Heightened Def Con from 0.12848 to 0.12848
Heightened Def Con from 0.128581 to 0.128581
Heightened Def Con from 0.128887 to 0.128887
Heightened Def Con from 0.129116 to 0.129116
Heightened Def Con from 0.129345 to 0.129345
Heightened Def Con from 0.129545 to 0.129545
Heightened Def Con from 0.129574 to 0.129574
Heightened Def Con from 0.129676 to 0.129676
Heightened Def Con from 0.129956 to 0.129956
Heightened Def Con from 0.130313 to 0.130313
Heightened Def Con from 0.130593 to 0.130593
Heightened Def Con from 0.130771 to 0.130771
Heightened Def Con from 0.130822 to 0.130822
Heightened Def Con from 0.131051 to 0.131051
Heightened Def Con from 0.131153 to 0.131153
Heightened Def Con from 0.13128 to 0.13128
Heightened Def Con from 0.131688 to 0.131688
Heightened Def Con from 0.131713 to 0.131713
Heightened Def Con from 0.132095 to 0.132095
Heightened Def Con from 0.132477 to 0.132477
Heightened Def Con from 0.132502 to 0.132502
Heightened Def Con from 0.132553 to 0.132553
Heightened Def Con from 0.132757 to 0.132757
Heightened Def Con from 0.13291 to 0.13291
Heightened Def Con from 0.132986 to 0.132986
Heightened Def Con from 0.133085 to 0.133085
Heightened Def Con from 0.133114 to 0.133114
Heightened Def Con from 0.133139 to 0.133139
Heightened Def Con from 0.133241 to 0.133241
Heightened Def Con from 0.133546 to 0.133546
Heightened Def Con from 0.133623 to 0.133623
Heightened Def Con from 0.133775 to 0.133775
Heightened Def Con from 0.133928 to 0.133928
Heightened Def Con from 0.134056 to 0.134056
Heightened Def Con from 0.134081 to 0.134081
Heightened Def Con from 0.134132 to 0.134132
Heightened Def Con from 0.134234 to 0.134234
Heightened Def Con from 0.134285 to 0.134285
Heightened Def Con from 0.134336 to 0.134336
Heightened Def Con from 0.134361 to 0.134361
Heightened Def Con from 0.134412 to 0.134412
Heightened Def Con from 0.134616 to 0.134616
Heightened Def Con from 0.134641 to 0.134641
Heightened Def Con from 0.135354 to 0.135354
Heightened Def Con from 0.135634 to 0.135634
Heightened Def Con from 0.136092 to 0.136092
Heightened Def Con from 0.136449 to 0.136449
Heightened Def Con from 0.1365 to 0.1365
Heightened Def Con from 0.136602 to 0.136602
Heightened Def Con from 0.136958 to 0.136958
Heightened Def Con from 0.137009 to 0.137009
Heightened Def Con from 0.137464 to 0.137464
Heightened Def Con from 0.137467 to 0.137467
Heightened Def Con from 0.137544 to 0.137544
Heightened Def Con from 0.137824 to 0.137824
Heightened Def Con from 0.1379 to 0.1379
Heightened Def Con from 0.138409 to 0.138409
Heightened Def Con from 0.13846 to 0.13846
Heightened Def Con from 0.138486 to 0.138486
Heightened Def Con from 0.138817 to 0.138817
Heightened Def Con from 0.139122 to 0.139122
Heightened Def Con from 0.139351 to 0.139351
Heightened Def Con from 0.139479 to 0.139479
Heightened Def Con from 0.13953 to 0.13953
Heightened Def Con from 0.139555 to 0.139555
Heightened Def Con from 0.139606 to 0.139606
Heightened Def Con from 0.139708 to 0.139708
Heightened Def Con from 0.139733 to 0.139733
Heightened Def Con from 0.14009 to 0.14009
Heightened Def Con from 0.140294 to 0.140294
Heightened Def Con from 0.140366 to 0.140366
Heightened Def Con from 0.140497 to 0.140497
Heightened Def Con from 0.140523 to 0.140523
Heightened Def Con from 0.141185 to 0.141185
Heightened Def Con from 0.141334 to 0.141334
Heightened Def Con from 0.142076 to 0.142076
Heightened Def Con from 0.142229 to 0.142229
Heightened Def Con from 0.142407 to 0.142407
Heightened Def Con from 0.143043 to 0.143043
Heightened Def Con from 0.143909 to 0.143909
Heightened Def Con from 0.144113 to 0.144113
Heightened Def Con from 0.144215 to 0.144215
Heightened Def Con from 0.144444 to 0.144444
Heightened Def Con from 0.144546 to 0.144546
Heightened Def Con from 0.144927 to 0.144927
Heightened Def Con from 0.14508 to 0.14508
Heightened Def Con from 0.14564 to 0.14564
Heightened Def Con from 0.145688 to 0.145688
Heightened Def Con from 0.145768 to 0.145768
Heightened Def Con from 0.145793 to 0.145793
Heightened Def Con from 0.145895 to 0.145895
Heightened Def Con from 0.145946 to 0.145946
Heightened Def Con from 0.146099 to 0.146099
Heightened Def Con from 0.14615 to 0.14615
Heightened Def Con from 0.146735 to 0.146735
Heightened Def Con from 0.146761 to 0.146761
Heightened Def Con from 0.147397 to 0.147397
Heightened Def Con from 0.147575 to 0.147575
Heightened Def Con from 0.147626 to 0.147626
Heightened Def Con from 0.147779 to 0.147779
Heightened Def Con from 0.147855 to 0.147855
Heightened Def Con from 0.14811 to 0.14811
Heightened Def Con from 0.148263 to 0.148263
Heightened Def Con from 0.148416 to 0.148416
Heightened Def Con from 0.148467 to 0.148467
Heightened Def Con from 0.148492 to 0.148492
Heightened Def Con from 0.148645 to 0.148645
Heightened Def Con from 0.14867 to 0.14867
Heightened Def Con from 0.148696 to 0.148696
Heightened Def Con from 0.148721 to 0.148721
Heightened Def Con from 0.148874 to 0.148874
Heightened Def Con from 0.14946 to 0.14946
Heightened Def Con from 0.14951 to 0.14951
Heightened Def Con from 0.149791 to 0.149791
Heightened Def Con from 0.149841 to 0.149841
Heightened Def Con from 0.149943 to 0.149943
Heightened Def Con from 0.150071 to 0.150071
Heightened Def Con from 0.150122 to 0.150122
Heightened Def Con from 0.150249 to 0.150249
Heightened Def Con from 0.1503 to 0.1503
Heightened Def Con from 0.150427 to 0.150427
Heightened Def Con from 0.150605 to 0.150605
Heightened Def Con from 0.150682 to 0.150682
Heightened Def Con from 0.150733 to 0.150733
Heightened Def Con from 0.152517 to 0.152517
Heightened Def Con from 0.152745 to 0.152745
Heightened Def Con from 0.152847 to 0.152847
Heightened Def Con from 0.154858 to 0.154858
Heightened Def Con from 0.15488 to 0.15488
Heightened Def Con from 0.156338 to 0.156338
Heightened Def Con from 0.156668 to 0.156668
Heightened Def Con from 0.15677 to 0.15677
Heightened Def Con from 0.15746 to 0.15746
Heightened Def Con from 0.158838 to 0.158838
Heightened Def Con from 0.158915 to 0.158915
Heightened Def Con from 0.159705 to 0.159705
Heightened Def Con from 0.159934 to 0.159934
Heightened Def Con from 0.160367 to 0.160367
Heightened Def Con from 0.162179 to 0.162179
Heightened Def Con from 0.164088 to 0.164088
Heightened Def Con from 0.164419 to 0.164419
Heightened Def Con from 0.16475 to 0.16475
Heightened Def Con from 0.165643 to 0.165643
Heightened Def Con from 0.167018 to 0.167018
Heightened Def Con from 0.167473 to 0.167473
Heightened Def Con from 0.167552 to 0.167552
Heightened Def Con from 0.168803 to 0.168803
Heightened Def Con from 0.169922 to 0.169922
Heightened Def Con from 0.170939 to 0.170939
Heightened Def Con from 0.171372 to 0.171372
Heightened Def Con from 0.17173 to 0.17173
Heightened Def Con from 0.172416 to 0.172416
Heightened Def Con from 0.172496 to 0.172496
Heightened Def Con from 0.172624 to 0.172624
Heightened Def Con from 0.172852 to 0.172852
Heightened Def Con from 0.173642 to 0.173642
Heightened Def Con from 0.173744 to 0.173744
Heightened Def Con from 0.174534 to 0.174534
Heightened Def Con from 0.174865 to 0.174865
Heightened Def Con from 0.175884 to 0.175884
Heightened Def Con from 0.176878 to 0.176878
Heightened Def Con from 0.177108 to 0.177108
Heightened Def Con from 0.177566 to 0.177566
Heightened Def Con from 0.177795 to 0.177795
Heightened Def Con from 0.178356 to 0.178356
Heightened Def Con from 0.17935 to 0.17935
Heightened Def Con from 0.180703 to 0.180703
Heightened Def Con from 0.180831 to 0.180831
Heightened Def Con from 0.181723 to 0.181723
Heightened Def Con from 0.181952 to 0.181952
Heightened Def Con from 0.182053 to 0.182053
Heightened Def Con from 0.182156 to 0.182156
Heightened Def Con from 0.182614 to 0.182614
Heightened Def Con from 0.182741 to 0.182741
Heightened Def Con from 0.182763 to 0.182763
Heightened Def Con from 0.183507 to 0.183507
Heightened Def Con from 0.184985 to 0.184985
Heightened Def Con from 0.185188 to 0.185188
Heightened Def Con from 0.185646 to 0.185646
Heightened Def Con from 0.185876 to 0.185876
Heightened Def Con from 0.186667 to 0.186667
Heightened Def Con from 0.18677 to 0.18677
Heightened Def Con from 0.187328 to 0.187328
Heightened Def Con from 0.188117 to 0.188117
Heightened Def Con from 0.188448 to 0.188448
Heightened Def Con from 0.191839 to 0.191839
Heightened Def Con from 0.193164 to 0.193164
Heightened Def Con from 0.193751 to 0.193751
Heightened Def Con from 0.195765 to 0.195765
Heightened Def Con from 0.195867 to 0.195867
Heightened Def Con from 0.197343 to 0.197343
Heightened Def Con from 0.197445 to 0.197445
Heightened Def Con from 0.198897 to 0.198897
Heightened Def Con from 0.199813 to 0.199813
Heightened Def Con from 0.200476 to 0.200476
Heightened Def Con from 0.201164 to 0.201164
Heightened Def Con from 0.202465 to 0.202465
Heightened Def Con from 0.202848 to 0.202848
Heightened Def Con from 0.203614 to 0.203614
Heightened Def Con from 0.203971 to 0.203971
Heightened Def Con from 0.204634 to 0.204634
Heightened Def Con from 0.205858 to 0.205858
Heightened Def Con from 0.206674 to 0.206674
Heightened Def Con from 0.206775 to 0.206775
Heightened Def Con from 0.206877 to 0.206877
Heightened Def Con from 0.207106 to 0.207106
Heightened Def Con from 0.207768 to 0.207768
Heightened Def Con from 0.208557 to 0.208557
Heightened Def Con from 0.209244 to 0.209244
Heightened Def Con from 0.210366 to 0.210366
Heightened Def Con from 0.210824 to 0.210824
Heightened Def Con from 0.212049 to 0.212049
Heightened Def Con from 0.212278 to 0.212278
Heightened Def Con from 0.213168 to 0.213168
Heightened Def Con from 0.213627 to 0.213627
Heightened Def Con from 0.214034 to 0.214034
Heightened Def Con from 0.21653 to 0.21653
Heightened Def Con from 0.217779 to 0.217779
Heightened Def Con from 0.218007 to 0.218007
Heightened Def Con from 0.219252 to 0.219252
Heightened Def Con from 0.219918 to 0.219918
Heightened Def Con from 0.223528 to 0.223528
Heightened Def Con from 0.223737 to 0.223737
Heightened Def Con from 0.224067 to 0.224067
Heightened Def Con from 0.224397 to 0.224397

Date: Sun Oct 15 23:47:31 2017
Total elapsed time: 325.091 seconds.

tnom = 27
temp = 27
method = modified trap
totiter = 11392081
traniter = 11392081
tranpoints = 3372712
accept = 2481151
rejected = 892253
matrix size = 139
fillins = 83
solver = Normal
Thread vector: 16.5/12.6[2] 7.3/5.8[2] 5.0/3.0[2] 1.3/1.7[1]  2592/500
Matrix Compiler1: 12.11 KB object code size  7.6/5.9/[1.3]
Matrix Compiler2: 12.55 KB object code size  2.8/3.7/[1.2]

