Circuit: * C:\Users\Laptop\Desktop\AIAA\F2017_Decal\Circuits\Simulation\MotorController.asc

WARNING: Less than two connections to node FSPEED.  This node is used by V§FASPEED.
WARNING: Less than two connections to node V_36V.  This node is used by V36V.
Direct Newton iteration failed to find .op point.  (Use ".option noopiter" to skip.)
Starting Gmin stepping
Gmin = 10
Gmin = 1.07374
Gmin = 0.115292
Gmin = 0.0123794
Gmin = 0.00132923
Gmin = 0.000142725
vernier = 0.5
vernier = 0.25
vernier = 0.125
Gmin = 0.000115679
vernier = 0.166667
vernier = 0.222222
Gmin = 7.64174e-005
vernier = 0.296296
Gmin = 4.00925e-005
vernier = 0.395061
vernier = 0.526748
Gmin = 1.38908e-005
vernier = 0.702331
vernier = 0.936441
Gmin = 2.69804e-006
vernier = 1
Gmin = 3.0491e-007
Gmin = 3.27395e-008
Gmin = 3.51537e-009
Gmin = 3.7746e-010
Gmin = 4.05295e-011
Gmin = 4.35182e-012
Gmin = 4.67273e-013
Gmin = 0
Gmin stepping succeeded in finding the operating point.

Ignoring empty pin current: Ix(u4:1:103)
Ignoring empty pin current: Ix(u4:2:103)
Ignoring empty pin current: Ix(u4:1:1:201)
Ignoring empty pin current: Ix(u4:1:2:603)
Ignoring empty pin current: Ix(u4:1:3:301)
Ignoring empty pin current: Ix(u4:2:1:201)
Ignoring empty pin current: Ix(u4:2:2:603)
Ignoring empty pin current: Ix(u4:2:3:301)
Ignoring empty pin current: Ix(u4:1:103)
Ignoring empty pin current: Ix(u4:2:103)
Ignoring empty pin current: Ix(u4:1:1:201)
Ignoring empty pin current: Ix(u4:1:2:603)
Ignoring empty pin current: Ix(u4:1:3:301)
Ignoring empty pin current: Ix(u4:2:1:201)
Ignoring empty pin current: Ix(u4:2:2:603)
Ignoring empty pin current: Ix(u4:2:3:301)

Date: Wed Sep 20 08:48:14 2017
Total elapsed time: 1.057 seconds.

tnom = 27
temp = 27
method = modified trap
totiter = 35248
traniter = 34345
tranpoints = 9471
accept = 7537
rejected = 1934
matrix size = 137
fillins = 65
solver = Normal
Thread vector: 20.1/9.1[3] 5.8/3.4[3] 3.4/2.8[2] 0.6/1.2[1]  2592/500
Matrix Compiler1: 9.82 KB object code size  3.0/1.4/[0.9]
Matrix Compiler2: 10.91 KB object code size  1.7/2.3/[0.7]

