Circuit: * H:\MITCHELL STUFF 2\Work\Berkeley\Berkeley_AIAA\Code_F2017\Circuits\Simulation\MotorController.asc

Per .tran options, skipping operating point for transient analysis.

Date: Wed Oct 04 19:04:59 2017
Total elapsed time: 11.821 seconds.

tnom = 27
temp = 27
method = modified trap
totiter = 440974
traniter = 440974
tranpoints = 149449
accept = 111928
rejected = 37521
matrix size = 131
fillins = 44
solver = Normal
Thread vector: 13.9/10.5[2] 6.4/5.1[2] 2.5/1.8[2] 1.1/2.0[1]  2592/500
Matrix Compiler1: 10.16 KB object code size  4.7/4.2/[1.2]
Matrix Compiler2: 11.58 KB object code size  2.6/3.3/[1.0]

