Circuit: * H:\MITCHELL STUFF 2\Work\Berkeley\Berkeley_AIAA\Code_F2017\Circuits\Simulation\MotorController.asc

WARNING: Less than two connections to node V_36V.  This node is used by V36V.
WARNING: Less than two connections to node V_1V.  This node is used by V1V.
Direct Newton iteration for .op point succeeded.
Ignoring empty pin current: Ix(u4:1:103)
Ignoring empty pin current: Ix(u4:2:103)
Ignoring empty pin current: Ix(u4:1:1:201)
Ignoring empty pin current: Ix(u4:1:2:603)
Ignoring empty pin current: Ix(u4:1:3:301)
Ignoring empty pin current: Ix(u4:2:1:201)
Ignoring empty pin current: Ix(u4:2:2:603)
Ignoring empty pin current: Ix(u4:2:3:301)
Ignoring empty pin current: Ix(u4:1:103)
Ignoring empty pin current: Ix(u4:2:103)
Ignoring empty pin current: Ix(u4:1:1:201)
Ignoring empty pin current: Ix(u4:1:2:603)
Ignoring empty pin current: Ix(u4:1:3:301)
Ignoring empty pin current: Ix(u4:2:1:201)
Ignoring empty pin current: Ix(u4:2:2:603)
Ignoring empty pin current: Ix(u4:2:3:301)

Date: Thu Sep 21 13:51:51 2017
Total elapsed time: 9.863 seconds.

tnom = 27
temp = 27
method = modified trap
totiter = 135752
traniter = 135713
tranpoints = 42273
accept = 32301
rejected = 9972
matrix size = 184
fillins = 104
solver = Normal
Thread vector: 48.5/28.0[7] 20.7/8.5[7] 13.4/8.9[7] 5.1/3.3[4]  2592/500
Matrix Compiler1: 15.06 KB object code size  10.8/8.0/[4.1]
Matrix Compiler2: off  [4.9]/6.1/6.4

